31

Si     1.845400    1.302500    3.748700
C      2.841600    1.115200    2.198100
C      2.074900    0.779000    1.138900
C      2.594300    0.560400   -0.215800
C      1.709500    0.251200   -1.186400
C      0.262300    0.119100   -0.949300
N     -0.436300   -0.193300   -2.056700
C     -1.769500   -0.347800   -1.967700
C     -2.458000   -0.194800   -0.755400
C     -1.708400    0.134200    0.397200
S     -2.763500    0.270400    1.771600
C     -4.186300   -0.089200    0.898800
C     -5.524500   -0.163300    1.401000
C     -6.621800   -0.471200    0.575300
C     -6.224500   -0.680800   -0.732300
C     -7.062300   -0.998100   -1.773200
O     -6.340300   -1.135300   -2.930500
C     -5.021400   -0.902400   -2.625300
C     -4.938600   -0.625600   -1.294600
C     -3.838400   -0.307800   -0.422000
C     -0.302000    0.303200    0.323600
C      0.615200    0.651800    1.441100
C      0.325600    0.887900    2.738900
C      3.962800    0.636000   -0.595100
S      4.648900    1.855900   -1.625600
C      6.258800    1.198100   -1.516500
C      6.203600    0.111800   -0.717600
C      7.039200   -0.882800   -0.186600
C      6.193500   -1.688900    0.586700
O      4.871200   -1.284100    0.592900
C      4.960100   -0.191900   -0.217700
