27

C      5.113000    2.461400    0.418700
C      6.110900    1.340200    0.482900
C      5.459800    0.171000    0.435300
C      5.980300   -1.171000    0.448500
C      5.097100   -2.184600    0.367900
C      3.650700   -1.954200    0.277500
C      3.085100   -0.719300    0.275100
C      1.642900   -0.591900    0.189000
C      0.850800    0.138800    1.019300
C     -0.469000   -0.017100    0.547700
O     -1.691500    0.433800    0.908600
C     -2.536300   -0.130200   -0.020400
C     -1.853500   -0.903900   -0.925000
S     -2.923700   -1.618600   -2.101800
C     -4.312900   -0.860000   -1.360100
C     -5.693100   -0.923200   -1.723000
C     -6.690700   -0.228700   -0.988800
C     -6.167900    0.489200    0.083100
C     -6.870400    1.259100    0.978300
O     -6.012200    1.815500    1.900100
C     -4.739100    1.395800    1.591500
C     -4.833400    0.597500    0.497500
C     -3.894600   -0.116200   -0.274600
C     -0.512800   -0.827200   -0.552500
C      0.820900   -1.302700   -0.922900
C      4.020200    0.405700    0.346700
C      3.801900    1.730400    0.326500
