28

C     -5.482900   -0.548600   -2.334400
C     -6.441200   -0.389800   -1.188200
C     -5.746000   -0.236600   -0.054100
C     -6.216400   -0.033700    1.291300
C     -5.293000    0.114100    2.260500
C     -3.853300    0.065600    1.981000
C     -3.334900   -0.136800    0.742000
C     -1.896600   -0.176100    0.564800
C     -1.190900   -1.152300   -0.057700
C      0.162000   -0.763400   -0.006900
S      1.573400   -1.445000   -0.557400
C      2.538300   -0.115500    0.057400
C      1.703600    0.837400    0.685700
C      2.287500    1.978500    1.242400
N      3.619000    2.189300    1.195000
C      4.426800    1.306200    0.608800
C      5.805100    1.627700    0.616400
C      6.843000    0.849200    0.059400
C      6.351500   -0.313000   -0.520700
C      7.187700   -1.219500   -1.123300
S      6.307600   -2.549000   -1.747700
C      4.808100   -1.899100   -1.204700
C      4.954200   -0.693000   -0.558100
C      3.931500    0.106000    0.008100
C      0.347800    0.430100    0.628900
C     -0.975400    0.948500    1.080000
C     -4.313400   -0.287000   -0.337400
C     -4.142700   -0.458400   -1.658100
