30

C     -5.777900   -0.797300    2.310400
C     -6.725900   -0.732900    1.144500
C     -6.020800   -0.603500    0.013300
C     -6.472400   -0.509100   -1.352000
C     -5.538500   -0.389100   -2.316600
C     -4.102700   -0.350100   -2.012500
C     -3.613900   -0.432000   -0.748500
C     -2.155800   -0.372100   -0.537300
C     -1.454500    0.795000   -0.814200
C     -0.082300    0.749200   -0.566600
N      0.867600    1.719000   -0.730900
C      2.116700    1.266700   -0.369100
C      1.974200   -0.059700    0.052500
C      0.563400   -0.382600   -0.073000
C     -0.236100   -1.507900    0.179300
N     -1.574000   -1.489400   -0.049900
C      3.156700   -0.754800    0.483500
C      3.081900   -2.099200    0.919100
C      4.211300   -2.797300    1.342800
C      5.443700   -2.169900    1.341700
C      5.545400   -0.844300    0.915900
C      4.424000   -0.095400    0.476200
C      4.523200    1.262500    0.037900
C      5.723200    2.011200   -0.010900
C      5.716900    3.328200   -0.453900
N      4.612500    3.978300   -0.858200
C      3.463200    3.273500   -0.815400
C      3.362300    1.939500   -0.385000
C     -4.593800   -0.570000    0.321900
C     -4.433300   -0.678000    1.649600
