28

C     -5.477300    2.342400    1.052800
C     -6.569500    1.488200    0.473800
C     -6.042400    0.334400    0.044700
C     -6.688900   -0.805300   -0.553500
C     -5.921300   -1.865700   -0.872200
C     -4.471900   -1.877600   -0.641300
C     -3.795400   -0.834800   -0.095400
C     -2.383100   -0.965900    0.041300
C     -1.554000   -1.971800    0.537600
C     -0.256800   -1.501900    0.383900
Si     1.529000   -1.950900    0.678700
C      2.111800   -0.280600   -0.068900
C      0.956600    0.443500   -0.460200
N      0.924600    1.657900   -1.023600
C      2.145000    2.205000   -1.219600
C      3.365600    1.599800   -0.881000
C      4.627700    2.331500   -1.160500
C      5.827800    1.807500   -0.860000
C      5.888000    0.506500   -0.253200
C      6.980200   -0.175600    0.115700
C      6.566100   -1.487400    0.704900
C      5.066400   -1.428100    0.605600
C      4.681800   -0.266600    0.048000
C      3.355800    0.303500   -0.280100
C     -0.280700   -0.256200   -0.194500
N     -1.581900    0.071800   -0.414900
C     -4.600200    0.327400    0.282300
C     -4.256800    1.481500    0.876900
