29

C      5.934700   -0.699300    1.655500
C      6.595900   -0.320100    0.362200
C      5.656300    0.043200   -0.520000
C      5.801400    0.453400   -1.892800
C      4.680700    0.738000   -2.583100
C      3.349000    0.656200   -1.973500
C      3.136900    0.293400   -0.681500
C      1.780100    0.297200   -0.216000
C      1.271000    0.605900    1.050100
C     -0.126500    0.466700    0.991000
C     -0.424900    0.085100   -0.287200
O      0.698300   -0.011500   -1.034500
C     -1.738700   -0.147800   -0.864300
C     -1.882000   -0.541700   -2.194400
C     -3.151100   -0.670100   -2.744800
C     -4.290900   -0.341900   -2.001000
C     -5.547500   -0.411000   -2.615200
C     -6.666200   -0.021100   -1.905100
N     -6.614900    0.448000   -0.649200
C     -5.386600    0.499000   -0.071500
C     -4.173200    0.081100   -0.651400
C     -2.879300    0.093100   -0.034200
C     -2.589100    0.350300    1.436800
C     -3.465500    0.254500    2.462000
Si    -2.682100    0.662500    4.118200
C     -1.051300    0.817000    3.246000
C     -1.186200    0.599900    1.924200
C      4.331000   -0.046300    0.093900
C      4.476200   -0.489600    1.353500
