29

C      6.043700    0.271100   -1.375100
C      6.566000   -0.735500   -0.391800
C      5.547100   -1.198600    0.343400
C      5.550200   -2.196900    1.381300
C      4.370700   -2.513500    1.948600
C      3.116900   -1.864100    1.551700
C      3.039400   -0.902700    0.594600
C      1.745600   -0.332400    0.346800
C      1.401400    0.963700   -0.056500
C      0.002200    1.018900   -0.149800
C     -0.464200   -0.221100    0.204200
O      0.561800   -1.046500    0.512600
C     -1.855200   -0.653500    0.268300
N     -2.086700   -1.927600    0.647200
C     -3.378600   -2.294500    0.694200
C     -4.449600   -1.455700    0.384300
C     -5.775500   -1.911200    0.456700
C     -6.818200   -1.053300    0.142800
C     -6.496000    0.232400   -0.232900
N     -5.229100    0.697600   -0.311200
C     -4.192700   -0.123800   -0.009000
C     -2.856200    0.292900   -0.069500
C     -2.381100    1.660000   -0.460700
C     -3.070700    2.755600   -0.825700
C     -2.134200    3.892400   -1.122600
C     -0.787700    3.281900   -0.871600
C     -0.946400    2.007500   -0.494800
C      4.299300   -0.550500   -0.063300
C      4.570900    0.295200   -1.070900
