31

C     -6.373000   -1.572500   -1.051300
C     -7.062500   -0.268200   -0.775200
C     -6.152800    0.634500   -0.387000
C     -6.330600    2.023200   -0.050000
C     -5.234500    2.732800    0.279400
C     -3.898400    2.128600    0.317600
C     -3.657200    0.823000    0.029300
C     -2.301300    0.366800    0.149700
C     -1.815900   -0.891500    0.536100
C     -0.434400   -0.790000    0.487100
C      0.624900   -1.661200    0.797300
C      0.533100   -2.924400    1.299600
O      1.806200   -3.367700    1.562600
C      2.680100   -2.361500    1.212000
C      1.979200   -1.314300    0.682200
C      2.430600   -0.032500    0.203400
C      1.417100    0.878600   -0.016600
S      1.987300    2.428600   -0.375500
C      3.643600    1.901600   -0.303300
C      4.802600    2.718600   -0.489700
C      6.102100    2.185500   -0.492000
C      6.087500    0.810000   -0.355400
C      7.212100    0.023900   -0.440000
N      6.802700   -1.291900   -0.357800
C      5.427300   -1.355200   -0.231400
C      4.998600   -0.061600   -0.165400
C      3.687100    0.522300   -0.062500
C     -0.074400    0.466900    0.107200
O     -1.201300    1.195100   -0.093900
C     -4.822400    0.025500   -0.357800
C     -4.933100   -1.252900   -0.755100
