29

Si     0.708600   -3.432100   -1.251700
C      1.960500   -2.183600   -0.646400
C      1.364000   -1.059500   -0.198200
C      2.063400    0.115300    0.332200
C      1.334700    1.168100    0.765400
C     -0.141100    1.193800    0.711500
N     -0.711400    2.328800    1.187700
C     -2.063400    2.446800    1.176700
C     -2.856600    1.410700    0.685100
C     -4.247900    1.198000    0.528300
N     -5.305600    1.995900    0.830400
C     -6.510200    1.451500    0.536100
C     -6.720300    0.193800   -0.025100
C     -5.626700   -0.616100   -0.329900
C     -4.388800   -0.064100   -0.031200
O     -3.172900   -0.637300   -0.226200
C     -2.231200    0.258100    0.208100
C     -0.850200    0.097300    0.200100
C     -0.120500   -1.083000   -0.277800
C     -0.635600   -2.218600   -0.791200
C      3.518300    0.220100    0.452700
C      4.235800   -0.006500    1.630900
N      5.597000    0.060700    1.804100
C      6.418000    0.376200    0.758600
C      5.831100    0.625900   -0.498600
N      6.474900    0.942600   -1.633900
S      5.305000    1.127300   -2.797700
N      3.937100    0.808400   -1.916900
C      4.334300    0.544800   -0.658400
