31

C      4.241200    2.800300   -0.057400
C      5.482500    2.024500    0.282300
C      5.179300    0.722100    0.354100
C      6.030100   -0.404800    0.636000
C      5.468400   -1.629000    0.635800
C      4.038900   -1.832900    0.368300
C      3.177900   -0.817600    0.095800
C      1.793400   -1.124300   -0.129700
C      1.204300   -2.255400   -0.703600
C     -0.166900   -2.019300   -0.679400
C     -1.263700   -2.798700   -1.125400
C     -1.135400   -4.026700   -1.703600
S     -2.700100   -4.612300   -2.085600
C     -3.463000   -3.190300   -1.457000
C     -2.577200   -2.257000   -0.957000
C     -2.890600   -0.998100   -0.378100
C     -4.221000   -0.364400   -0.180100
S     -5.734100   -1.012100   -0.635800
C     -6.602200    0.332300   -0.048300
C     -5.770000    1.283800    0.491400
C     -4.406500    0.885200    0.413500
C     -3.269700    1.615500    0.867100
C     -3.191900    2.810600    1.470500
C     -1.757100    3.133600    1.756000
C     -1.043200    1.929600    1.216400
C     -1.927500    1.057300    0.700100
C     -1.726300   -0.260000    0.064400
C     -0.437200   -0.800600   -0.113800
O      0.770900   -0.250500    0.218700
C      3.756600    0.526200    0.083100
C      3.199300    1.722400   -0.165000
