26

C      5.531300   -1.676300    1.515400
C      6.487400   -0.857600    0.693400
C      5.790000   -0.063600   -0.129000
C      6.254000    0.885600   -1.108300
C      5.327400    1.558300   -1.818800
C      3.887600    1.354700   -1.615400
C      3.382900    0.471900   -0.715200
C      1.962300    0.375000   -0.572500
C      1.190300    0.651900    0.540300
C     -0.212100    0.425000    0.344400
C     -1.305400    0.595900    1.227100
C     -2.620400    0.306500    0.820600
C     -3.707200    0.476300    1.696700
C     -5.014300    0.198100    1.322000
N     -6.010200    0.381600    2.207700
C     -7.271300    0.101600    1.811900
C     -7.598600   -0.361700    0.552300
C     -6.567600   -0.550000   -0.359600
C     -5.246100   -0.270300    0.014500
C     -4.171200   -0.445800   -0.874700
C     -2.855400   -0.160800   -0.482800
C     -1.780400   -0.335800   -1.369900
C     -0.471100   -0.039600   -0.942400
S      0.975700   -0.185100   -1.861000
C      4.359300   -0.276400    0.072800
C      4.189200   -1.211700    1.020500
