25

C     -5.071100    1.835100    0.798800
C     -5.888000    0.673100    0.306800
C     -5.064800   -0.281500   -0.145100
C     -5.369600   -1.576600   -0.697300
C     -4.337500   -2.358600   -1.070300
C     -2.941100   -1.925100   -0.937200
C     -2.583300   -0.721400   -0.419600
C     -1.193300   -0.382700   -0.367900
C     -0.543000    0.663400   -0.992100
C      0.863300    0.727900   -0.711900
C      1.838500    1.648700   -1.176700
C      3.171200    1.537400   -0.781500
C      3.534300    0.501600    0.082700
C      4.838400    0.285400    0.549900
O      5.941700    1.031500    0.246100
C      6.990900    0.478300    0.907600
C      6.582800   -0.615400    1.635500
C      5.186500   -0.749800    1.410400
C      4.182900   -1.623600    1.833500
N      2.903900   -1.458300    1.410200
C      2.606500   -0.432800    0.569500
C      1.259300   -0.299400    0.154900
S     -0.093200   -1.285500    0.587200
C     -3.677500    0.152300   -0.002100
C     -3.660800    1.376800    0.548000
