29

C      5.940600    2.396100    0.743700
C      6.807900    1.170800    0.832700
C      6.074800    0.091800    0.529900
C      6.452400   -1.297700    0.480500
C      5.504000   -2.194600    0.144900
C      4.126200   -1.794700   -0.168300
C      3.704400   -0.504800   -0.134200
C      2.353000   -0.226800   -0.472100
C      1.755800    0.516900   -1.467700
C      0.348200    0.448600   -1.280700
C     -0.750400    0.976500   -1.957200
N     -2.014000    0.733200   -1.523900
C     -2.261900   -0.023400   -0.425800
C     -1.198700   -0.586400    0.305700
C     -1.456300   -1.364700    1.437600
N     -2.691600   -1.626800    1.897100
C     -3.717200   -1.088800    1.198000
C     -5.053600   -1.412100    1.752400
C     -6.189500   -0.964200    1.189900
C     -6.098800   -0.145100    0.012100
C     -7.093300    0.400700   -0.700300
C     -6.513300    1.174900   -1.847600
C     -5.037600    0.972800   -1.660000
C     -4.810100    0.206600   -0.579600
C     -3.558400   -0.286400    0.039500
C      0.115800   -0.332500   -0.150400
N      1.349900   -0.722100    0.326100
C      4.705600    0.495100    0.222000
C      4.606700    1.827900    0.344600
