28

C      5.492400    1.482800    1.498100
C      6.455000    0.593300    0.762300
C      5.772500   -0.392300    0.165600
C      6.250700   -1.489400   -0.636300
C      5.341500   -2.363200   -1.111200
C      3.905900   -2.220300   -0.840300
C      3.387100   -1.205200   -0.102000
C      1.969100   -1.174600    0.080700
C      1.155500   -2.085500    0.717500
C     -0.221800   -1.722800    0.693700
N     -1.190900   -2.477900    1.266400
C     -2.443000   -2.002300    1.162700
C     -2.827100   -0.825200    0.529800
C     -4.239500   -0.380900    0.468100
Si    -5.717300   -1.290900    1.207000
C     -6.818400    0.064000    0.570300
C     -6.098200    0.997300   -0.075800
C     -4.649300    0.762400   -0.142000
C     -3.647900    1.606900   -0.775800
C     -3.926900    2.762900   -1.413100
Si    -2.397400    3.560400   -2.095100
C     -1.423100    2.128600   -1.394000
C     -2.203200    1.228300   -0.756900
C     -1.804200   -0.038800   -0.071600
C     -0.470000   -0.517800    0.024100
S      1.034100    0.109200   -0.551100
C      4.345100   -0.243600    0.439200
C      4.164600    0.835100    1.217600
