25

C     -4.862600    2.263500    1.007200
C     -5.859600    1.194900    0.651200
C     -5.206900    0.129800    0.168700
C     -5.716300   -1.133200   -0.303700
C     -4.826800   -2.046300   -0.742900
C     -3.381500   -1.788600   -0.750000
C     -2.843300   -0.620900   -0.319100
C     -1.382100   -0.457800   -0.362000
C     -0.748600   -0.093400   -1.552000
C      0.634600    0.066600   -1.579300
C      1.389200   -0.138100   -0.402100
C      2.804400    0.007700   -0.354600
S      3.902600    0.446500   -1.651800
C      5.216400    0.344000   -0.634100
C      6.600300    0.540900   -0.810600
C      7.173400    0.310900    0.392900
C      6.137800   -0.064800    1.460800
C      4.892000   -0.004900    0.648100
C      3.504500   -0.207800    0.847700
C      2.774000   -0.566200    1.984700
N      1.430100   -0.706100    1.946700
C      0.761000   -0.502300    0.804400
C     -0.618000   -0.654100    0.798500
C     -3.770800    0.392500    0.164000
C     -3.549800    1.625000    0.645300
