24

C     -4.743300   -0.551300   -0.022000
C     -5.821700    0.233400   -0.712700
C     -5.275000    1.247000   -1.396700
C     -3.844900    1.223500   -1.226000
C     -3.495000    0.194600   -0.434600
C     -2.170300   -0.178500   -0.019100
C     -1.857700   -1.218400    0.776400
C     -0.420400   -1.217300    0.929900
C      0.177700   -0.161500    0.220400
C     -0.935800    0.601400   -0.458100
C      1.568200    0.083500    0.190100
C      2.102900    1.159300   -0.540800
C      3.487400    1.334000   -0.520300
O      4.162200    2.321900   -1.171800
C      5.481700    2.145500   -0.900900
C      5.666100    1.055200   -0.082200
C      4.375100    0.520900    0.170800
C      3.863800   -0.558800    0.907100
C      2.463000   -0.773300    0.914000
C      1.885600   -1.872400    1.657400
N      2.543700   -2.784900    2.396600
S      1.397800   -3.809300    3.024400
N      0.007800   -3.154800    2.395600
C      0.388800   -2.097400    1.661600
