24

C     -4.903600    1.258100    0.769600
C     -6.254700    0.608400    0.711100
C     -6.121600   -0.674100    0.351700
C     -4.726900   -0.972800    0.149100
C     -3.978500    0.121800    0.380800
C     -2.548000    0.284800    0.300300
C     -1.858700    1.418500    0.548600
C     -0.398500    1.306100    0.390500
C      0.488500    2.347200    0.596500
N      1.823000    2.224100    0.446500
C      2.303500    1.004200    0.072300
C      3.711900    0.952700   -0.064700
O      4.617600    1.971300    0.133600
C      5.862100    1.463900   -0.113300
C      5.800800    0.132100   -0.470600
C      4.438700   -0.155700   -0.430000
C      3.716800   -1.344900   -0.690800
C      4.287800   -2.525700   -1.062200
S      3.043500   -3.689700   -1.270500
C      1.807100   -2.551500   -0.852600
C      2.298700   -1.297400   -0.554000
C      1.499800   -0.155800   -0.173300
C      0.102600    0.037900    0.001500
Si    -1.364900   -1.111400   -0.183200
