26

Si    -0.953400    3.413000    1.142400
C     -2.102400    2.073600    0.573900
C     -1.439200    0.937300    0.274500
C     -2.091900   -0.324000   -0.058800
C     -1.323700   -1.422900   -0.182500
C      0.146200   -1.391000   -0.074300
N      0.712600   -2.609200   -0.226100
C      2.056300   -2.654100   -0.243900
C      2.888800   -1.542200   -0.185100
C      4.287100   -1.723700   -0.282300
C      5.126100   -0.602000   -0.295000
C      6.523000   -0.370700   -0.388800
C      6.689900    0.995300   -0.377000
O      5.488000    1.622300   -0.283500
C      4.537900    0.648300   -0.226600
C      3.163300    0.862300   -0.121600
C      2.292800   -0.257100   -0.053300
C      0.872100   -0.188100    0.094900
C      0.044300    1.020500    0.404900
C      0.456200    2.198500    0.923200
C     -3.546300   -0.495500   -0.232100
C     -4.338200   -0.959400    0.826100
C     -5.715800   -1.111400    0.659300
C     -6.309300   -0.799600   -0.563600
C     -5.527600   -0.334800   -1.620800
C     -4.149700   -0.181900   -1.456400
