19

C      4.152600   -1.414400    0.014700
C      5.572500   -0.928900   -0.004800
C      5.588300    0.408900   -0.039300
C      4.234900    0.902900   -0.045300
C      3.358800   -0.120700   -0.014700
C      1.941300    0.080500   -0.012700
C      1.210100    1.279100   -0.039500
C     -0.184100    1.018300   -0.025600
N     -1.428200    1.628500   -0.034500
C     -2.327400    0.643900   -0.004700
C     -3.634200    0.404100    0.008600
N     -4.740600    1.151700   -0.004200
C     -5.768900    0.221800    0.025200
C     -5.268800   -1.084100    0.055600
C     -3.860200   -0.937100    0.044000
N     -2.618200   -1.538000    0.052400
C     -1.721900   -0.541200    0.022100
C     -0.403500   -0.328100    0.009700
S      0.901700   -1.350400    0.028900
