32

C      4.598900   -1.499500   -1.014200
C      6.001100   -1.572200   -0.476800
C      6.123400   -0.759400    0.581800
C      4.867300   -0.099300    0.826100
C      3.960300   -0.500800   -0.081100
C      2.580400   -0.063000   -0.189600
C      1.604400   -0.994000   -0.266700
C      0.132800   -0.701000   -0.302000
C     -0.810400   -1.736100   -0.568700
C     -0.417000   -2.994600   -1.103600
C     -1.322400   -4.011100   -1.395000
C     -2.663300   -3.797500   -1.167600
C     -3.083700   -2.570900   -0.651400
C     -2.194100   -1.504800   -0.332800
C     -2.606400   -0.240700    0.242500
C     -3.964400    0.047900    0.607900
O     -5.079000   -0.744200    0.425100
C     -6.164600   -0.087500    0.924600
C     -5.802400    1.130600    1.450000
C     -4.425500    1.179900    1.232400
C     -3.501600    2.175300    1.599400
N     -3.871900    3.255700    2.269700
S     -2.413300    4.031900    2.517800
N     -1.381400    2.967500    1.757000
C     -2.115100    1.959200    1.233400
C     -1.642500    0.801700    0.485400
C     -0.301000    0.605900    0.050200
C      0.714600    1.679800   -0.157500
C      0.457400    2.964900   -0.485100
Si     2.017600    3.956400   -0.716600
C      2.970500    2.375700   -0.497700
C      2.152000    1.332000   -0.244700
