26

Si     1.120800    2.558900   -2.340300
C      2.371100    1.630700   -1.325300
C      1.809900    0.598200   -0.660800
C      2.564600   -0.428100    0.061200
C      1.889600   -1.532400    0.444100
C      0.437700   -1.704700    0.241100
N     -0.012900   -2.935600    0.554700
C     -1.339800   -3.123600    0.444600
C     -2.267900   -2.119800    0.169900
C     -3.627200   -2.445900    0.112700
C     -4.585900   -1.460600   -0.078500
C     -4.216900   -0.117900   -0.112500
C     -5.222900    0.861900   -0.179100
C     -4.913400    2.215300   -0.096300
C     -3.595600    2.598400    0.084400
C     -2.589900    1.627400    0.131400
C     -2.845000    0.243000   -0.032800
C     -1.818300   -0.791300   -0.030900
C     -0.395100   -0.641500   -0.174800
C      0.336900    0.481800   -0.829100
C     -0.162800    1.338100   -1.746800
C      3.953900   -0.357900    0.372800
C      4.728500    0.566000    1.048200
C      6.069400    0.111700    1.017900
C      6.084600   -1.071300    0.314800
N      4.799800   -1.345900   -0.078500
