26

C      3.636700   -1.743900    0.921500
C      5.041400   -1.864000    0.398000
C      5.177300   -1.130700   -0.716600
C      3.926600   -0.485000   -1.022600
C      3.021400   -0.812000   -0.085700
C      1.618200   -0.397700   -0.035100
C      0.678800   -1.368100   -0.361800
C     -0.693000   -1.071800   -0.371000
C     -1.592500   -2.128600   -0.720800
N     -1.267600   -3.396100   -1.041300
S     -2.679700   -4.195600   -1.359100
N     -3.768300   -2.976600   -1.102700
C     -3.058900   -1.885200   -0.756600
C     -3.578600   -0.598100   -0.442800
C     -4.972900   -0.375200   -0.479800
C     -5.467200    0.875900   -0.173800
C     -4.548800    1.843300    0.154200
N     -3.208200    1.637200    0.192200
C     -2.659800    0.436900   -0.096400
C     -1.212700    0.223100   -0.053400
C     -0.204200    1.230400    0.294400
C     -0.509900    2.575100    0.647200
C      0.449300    3.534000    0.990300
C      1.783000    3.191400    1.001500
C      2.145200    1.893600    0.663400
C      1.193900    0.905100    0.302200
