24

C      5.099000   -1.220300    0.279600
C      6.367300   -0.424000    0.170200
C      6.071400    0.868800   -0.017800
C      4.640400    1.031800   -0.047700
C      4.036100   -0.158400    0.121500
C      2.621500   -0.284000    0.133400
C      1.850700   -1.430500    0.295600
C      0.482600   -1.060200    0.236100
C     -0.744900   -1.737700    0.328600
C     -1.940800   -0.987900    0.215100
C     -3.236500   -1.597000    0.297400
N     -3.506700   -2.908500    0.485600
S     -5.174400   -3.066200    0.501100
N     -5.640900   -1.473900    0.269100
C     -4.476800   -0.848500    0.183900
C     -4.368900    0.559500   -0.019000
C     -5.399000    1.492100   -0.158200
C     -4.759300    2.701400   -0.330100
N     -3.397300    2.488300   -0.293300
C     -3.120100    1.146200   -0.098300
C     -1.900200    0.424200    0.011300
C     -0.665600    1.097100   -0.080500
C      0.480300    0.310000    0.038200
O      1.753900    0.777100   -0.023600
