28

C      5.269900   -0.826700   -0.167600
C      6.575000   -0.100900   -0.001500
C      6.342700    1.172900    0.335800
C      4.922000    1.393300    0.413100
C      4.256200    0.258900    0.120400
C      2.799400    0.073700    0.080500
C      1.881300    1.132800    0.215200
C      0.466000    1.012200    0.190300
C     -0.257400    2.202600    0.304000
C     -1.647300    2.230200    0.275100
C     -2.375500    1.042200    0.169000
C     -3.791500    1.189700    0.158300
O     -4.529000    2.351000    0.212100
C     -5.849800    1.993300    0.178000
C     -6.000300    0.622100    0.108000
C     -4.692200    0.157100    0.095400
C     -4.135300   -1.127600    0.060200
C     -4.769000   -2.326200    0.048300
O     -3.797600   -3.284800    0.076900
C     -2.581600   -2.641500    0.101900
C     -2.726200   -1.269800    0.061600
C     -1.713800   -0.235800    0.084100
C     -0.240000   -0.231600    0.048200
C      0.667800   -1.348500   -0.152300
N      0.318500   -2.618700   -0.409300
S      1.685400   -3.521500   -0.556500
N      2.826800   -2.360500   -0.323100
C      2.189400   -1.191200   -0.127700
