29

C     -5.822700    0.568400    0.076500
C     -6.839600    1.549600    0.585300
C     -6.217200    2.549000    1.220000
C     -4.796400    2.321600    1.180900
C     -4.517800    1.180300    0.519000
C     -3.182000    0.632000    0.276500
C     -1.979800    1.296300    0.639000
C     -0.648600    0.840200    0.450600
N      0.292900    1.675200    0.878200
C      1.593900    1.330800    0.721800
C      2.093600    0.154400    0.157000
C      1.102400   -0.785400   -0.207900
C      1.559100   -2.063900   -0.579800
C      2.913100   -2.407800   -0.636100
C      3.913600   -1.483900   -0.364900
C      5.273800   -1.938700   -0.463400
C      6.410500   -1.143000   -0.249500
C      6.056200    0.168000    0.026300
C      7.020000    1.130200    0.204800
S      6.317200    2.671800    0.436200
C      4.724000    2.037800    0.286100
C      4.700100    0.668100    0.138100
C      3.515300   -0.151200   -0.002300
C     -0.305500   -0.414200   -0.134800
C     -1.513400   -1.074100   -0.552800
C     -1.625200   -2.236600   -1.281600
N     -2.961700   -2.501200   -1.462000
C     -3.717600   -1.499100   -0.905300
C     -2.859900   -0.576700   -0.352300
