24

C      4.660800   -0.752600   -0.054800
C      5.895000   -0.144100   -0.654300
C      5.556200    0.918800   -1.392000
C      4.128200    1.093200   -1.342700
C      3.561400    0.141300   -0.574000
C      2.127700   -0.000600   -0.292000
C      1.150100    0.901500   -0.832300
C     -0.219600    0.737600   -0.542100
O     -1.272300    1.510600   -0.978500
C     -2.388100    0.932800   -0.416100
C     -3.776700    1.158600   -0.409500
C     -4.651100    2.082700   -0.978800
N     -5.984200    1.989000   -0.744600
C     -6.439800    0.989600    0.045100
C     -5.647800    0.024600    0.654600
C     -4.279800    0.131600    0.406300
N     -3.231500   -0.656500    0.854300
C     -2.070900   -0.152300    0.340400
C     -0.701100   -0.263500    0.252000
C      0.173700   -1.187800    0.821400
C     -0.029800   -2.255700    1.630000
O      1.200500   -2.803000    1.878800
C      2.137900   -2.049500    1.209700
C      1.547900   -1.010100    0.520500
