28

C     -5.902100   -0.768200   -1.542200
C     -7.194100   -0.378000   -0.888100
C     -6.939600    0.259500    0.260700
C     -5.514000    0.342700    0.458100
C     -4.863300   -0.242000   -0.566600
C     -3.449600   -0.332900   -0.679400
C     -2.657800   -0.911100   -1.655200
C     -1.310800   -0.699900   -1.248900
S      0.292700   -1.048100   -1.801600
C      1.038700   -0.258400   -0.414200
C     -0.009100    0.212600    0.367800
C      0.245300    0.907500    1.576700
C     -0.574200    1.464500    2.514500
N      0.276300    1.997000    3.460800
C      1.590500    1.765500    3.100700
C      1.595200    1.074000    1.905500
C      2.726500    0.633400    1.178400
C      4.035100    0.871700    1.630100
C      5.117000    0.424300    0.889700
C      4.935600   -0.266300   -0.309300
C      6.089700   -0.683700   -0.995800
C      6.007000   -1.376700   -2.196000
C      4.761400   -1.659100   -2.721700
C      3.605900   -1.247000   -2.044600
C      3.627000   -0.535300   -0.814000
C      2.462500   -0.074400   -0.052800
C     -1.317100   -0.019000   -0.072600
N     -2.625600    0.208100    0.279100
