24

Si    -1.830700   -3.539800    0.337300
C     -2.870800   -2.013300    0.063900
C     -2.111400   -0.898700   -0.008500
C     -2.633900    0.470700   -0.226300
C     -1.752900    1.499100   -0.291300
C     -0.359500    1.227400   -0.154000
O      0.636500    2.165300   -0.201100
C      1.819300    1.517300   -0.027400
C      3.070900    2.117700   -0.011600
C      4.203900    1.317100    0.178600
C      5.600900    1.568600    0.251000
C      6.233200    0.363400    0.456500
N      5.272300   -0.611600    0.511800
C      4.024000   -0.056500    0.345000
C      2.758400   -0.650000    0.327300
C      1.622600    0.150600    0.136800
C      0.218900   -0.024200    0.053900
C     -0.645000   -1.158900    0.136600
C     -0.314100   -2.450400    0.323500
C     -4.022100    0.797000   -0.337800
C     -5.028400    0.718400    0.612000
N     -6.295400    1.083800    0.198400
C     -6.246900    1.435800   -1.066300
S     -4.712400    1.346200   -1.822300
