29

C      6.042000    0.310300   -0.134500
C      7.125700   -0.093100    0.822800
C      6.577700   -0.630700    1.917900
C      5.144800   -0.627100    1.780400
C      4.784200   -0.087400    0.598500
C      3.412500    0.083400    0.110600
C      2.268100   -0.316000    0.857100
C      0.927900   -0.152400    0.387900
S     -0.535100   -0.580200    1.166300
C     -1.564200   -0.017400   -0.124700
C     -0.759100    0.500800   -1.155000
N     -1.262100    1.018900   -2.303100
C     -2.595300    1.012000   -2.408800
C     -3.486900    0.529100   -1.461400
C     -4.853600    0.599400   -1.734700
C     -5.785100    0.129700   -0.819300
C     -5.382200   -0.424000    0.395500
C     -6.380200   -0.879500    1.274900
C     -6.057400   -1.442700    2.502600
C     -4.727400   -1.554800    2.861500
C     -3.727000   -1.103300    1.991200
C     -4.000100   -0.519700    0.724300
C     -3.014800   -0.024700   -0.240200
C      0.610700    0.405500   -0.828400
C      1.722100    0.823400   -1.617600
C      1.744800    1.401900   -2.847100
O      3.054900    1.611800   -3.175600
C      3.818800    1.153600   -2.130900
C      3.031400    0.644600   -1.118600
