32

C      5.532000   -1.405300   -0.448500
C      6.986600   -1.100100   -0.660600
C      7.142600    0.209800   -0.889200
C      5.857100    0.858300   -0.850700
C      4.890400   -0.044900   -0.601100
C      3.443300    0.183400   -0.474800
C      2.868800    1.429300   -0.729000
C      1.482600    1.643800   -0.599100
C      0.568600    0.646500   -0.186200
C      1.172600   -0.627000   -0.011600
C      2.574100   -0.850400   -0.126400
C      0.212500   -1.609600    0.292700
C      0.484100   -2.919500    0.617000
N     -0.712500   -3.518200    0.917200
C     -1.730400   -2.601700    0.802700
C     -1.207700   -1.423600    0.317000
C     -1.917100   -0.211000    0.066800
C     -0.913500    0.854100   -0.001800
C     -1.591700    2.106700    0.170600
C     -0.941100    3.275300    0.514000
S     -1.987300    4.620800    0.648400
C     -3.359300    3.638300    0.386300
C     -3.031900    2.310000    0.200400
C     -4.013200    1.297000    0.037900
C     -5.428800    1.557300   -0.005700
C     -6.388000    0.567900   -0.218000
C     -5.878500   -0.721000   -0.448200
N     -6.640300   -1.786000   -0.742700
S     -5.603200   -3.040500   -1.025300
N     -4.155200   -2.297500   -0.756500
C     -4.390800   -1.022600   -0.394000
C     -3.399700   -0.005900   -0.065300
