30

C      5.955800   -0.067300    1.474900
C      7.430900   -0.150900    1.208400
C      7.648900   -0.168200   -0.112400
C      6.388300   -0.100800   -0.805900
C      5.375100   -0.043400    0.079100
C      3.932000    0.037000   -0.194600
C      3.426400   -0.010200   -1.492100
C      2.047000    0.075000   -1.735500
C      1.092500    0.224400   -0.702300
C      1.611200    0.215600    0.605200
C      0.734600    0.293200    1.681700
C     -0.651900    0.293800    1.490900
C     -1.280200    0.232900    0.233700
C     -0.354100    0.351500   -0.876000
C     -1.086600    0.653200   -2.061600
C     -0.592000    1.051100   -3.285100
N     -1.655800    1.296300   -4.122800
C     -2.831500    1.129900   -3.437900
C     -2.507000    0.757700   -2.152700
C     -3.414900    0.523300   -1.102400
C     -4.810100    0.666300   -1.245400
C     -5.644400    0.394100   -0.177100
C     -5.121600   -0.119000    1.006000
C     -6.022200   -0.482300    2.022800
C     -5.583800   -1.106400    3.184300
C     -4.240600   -1.403600    3.321900
C     -3.337700   -1.026700    2.320400
C     -3.714700   -0.308600    1.154500
C     -2.781800    0.144500    0.121100
C      3.000300    0.142000    0.844200
