29

C      5.082100    0.798600    0.049300
C      6.506900    0.342700    0.169400
C      6.540100   -0.976700    0.393300
C      5.194400   -1.488400    0.439200
C      4.313900   -0.488800    0.243600
C      2.848600   -0.568000    0.212600
C      2.159700   -1.745100    0.388900
N      0.812400   -1.849200    0.365500
C      0.031200   -0.765800    0.160300
C      0.615600    0.505200   -0.034800
C      2.042300    0.551900    0.000700
C     -0.202800    1.669400   -0.254500
C      0.361300    2.963200   -0.453800
C     -0.400900    4.109200   -0.668800
C     -1.771200    4.004000   -0.692900
C     -2.360500    2.755000   -0.501800
C     -1.620400    1.557000   -0.278800
C     -2.221100    0.260600   -0.080100
C     -3.650700    0.048100   -0.088200
O     -4.646600    0.985300   -0.275600
C     -5.853400    0.356300   -0.207200
C     -5.695300   -0.990500    0.023200
C     -4.312200   -1.145900    0.091500
C     -3.529900   -2.296000    0.308000
C     -4.043200   -3.544700    0.501400
S     -2.740900   -4.636800    0.724100
C     -1.570200   -3.376400    0.548700
C     -2.122300   -2.128000    0.322800
C     -1.384200   -0.895000    0.138900
