24

C     -5.023500    1.393500   -1.015700
C     -5.898100    0.728400    0.082700
C     -5.167000   -0.007100    0.957900
C     -3.849700    0.124800    0.511800
N     -2.657800   -0.348000    0.928800
C     -1.686100    0.138300    0.060000
C     -2.340400    0.929900   -0.909100
N     -1.704300    1.564400   -1.919400
C     -0.362500    1.391900   -1.949400
C      0.410400    0.642800   -1.060900
C      1.846700    0.543400   -1.209500
C      2.714000   -0.194100   -0.353800
C      4.164500   -0.311700   -0.486700
N      4.894500   -1.297300    0.001000
C      6.228900   -1.105900   -0.294600
C      6.519700    0.034900   -1.005700
S      5.077300    0.899600   -1.317400
C      1.979100   -0.823800    0.658000
C      2.439300   -1.617000    1.679200
O      1.396200   -2.025000    2.458800
C      0.255000   -1.488400    1.933900
C      0.555000   -0.737800    0.825900
C     -0.299000   -0.011400   -0.010000
C     -3.697300    0.901600   -0.597500
