19

C     -4.705100    0.993700   -0.526700
C     -5.571800   -0.201700   -0.034500
C     -4.825000   -1.231600    0.443900
C     -3.500100   -0.804900    0.305100
N     -2.301900   -1.349100    0.587200
C     -1.362500   -0.398100    0.204700
C      0.025200   -0.227900    0.180700
Si     1.572800   -1.167000    0.648500
C      2.586600    0.335300    0.027300
C      1.791100    1.328300   -0.436800
C      0.405800    0.992000   -0.339900
S     -0.909400    1.967400   -0.815200
C     -2.012200    0.719900   -0.308800
C     -3.382200    0.438100   -0.235200
C      4.001700    0.298400    0.095100
N      4.723200   -0.707100    0.561900
C      6.073500   -0.431800    0.490600
C      6.399000    0.794900   -0.034800
S      4.972500    1.635200   -0.455100
