23

C     -5.470200   -1.087000   -0.903600
C     -6.479600   -0.425900    0.082000
C     -5.874400    0.362500    1.009700
C     -4.509000    0.277700    0.714100
N     -3.391100    0.818900    1.255900
C     -2.345100    0.333000    0.490000
C     -0.968700    0.336400    0.306200
C      0.281000    0.884300    0.835300
C      1.272500    0.204500   -0.144900
C      0.636900   -0.567900   -1.066500
C     -0.740600   -0.482000   -0.771400
O     -1.878700   -1.006800   -1.290100
C     -2.861500   -0.487700   -0.491400
C     -4.237800   -0.528200   -0.356000
C      2.702000    0.448700   -0.056400
C      3.269400    1.744900    0.016200
C      4.675900    2.003700    0.101700
C      5.661500    0.995800    0.133800
C      5.101700   -0.280500    0.080300
C      5.871100   -1.416900    0.117700
S      4.896100   -2.829500    0.069200
C      3.441500   -1.913300    0.001000
C      3.684900   -0.558400   -0.010100
