17

C     -4.105700    1.190200   -0.370500
C     -5.139400    0.102700   -0.144700
C     -4.541600   -1.080700    0.091300
C     -3.130900   -0.875900    0.042200
C     -2.844800    0.410900   -0.218300
C     -1.449500    0.759900   -0.304300
C     -0.620200   -0.290200   -0.096500
Si    -1.648600   -1.914500    0.235300
C      0.791400   -0.278500   -0.127900
C      1.755100   -1.238900   -0.386400
C      3.027200   -0.635300   -0.252900
N      4.255300   -1.184600   -0.413500
C      5.282300   -0.332400   -0.208900
C      5.165700    1.007100    0.140200
C      3.899100    1.562500    0.303600
C      2.827100    0.695700    0.094000
N      1.468100    0.887900    0.165400
