17

C      4.247300    1.376000    0.606500
C      5.118200    0.551200   -0.328000
C      4.371200   -0.333100   -1.017900
C      3.016900   -0.166600   -0.610900
C      2.916700    0.795500    0.310500
C      1.562100    0.964500    0.715900
C      0.798600    0.084300    0.029400
C      1.685800   -0.748700   -0.905200
C     -0.629900   -0.058300    0.132400
C     -1.522400    0.921700    0.394200
C     -2.925400    0.481200    0.416400
C     -4.028500    1.278300    0.661600
N     -5.297800    0.803300    0.664600
C     -5.462400   -0.520000    0.411500
C     -4.425100   -1.405700    0.152800
C     -3.138100   -0.887100    0.157100
Si    -1.500800   -1.734400   -0.140000
