27

C     -3.394000   -1.253200    2.619000
C     -4.871700   -1.332800    2.286000
C     -5.151400   -0.990300    1.016200
C     -3.890600   -0.659800    0.402000
C     -2.820600   -0.795800    1.300000
C     -1.501000   -0.499900    0.903700
N     -0.324500   -0.498600    1.623800
C      0.749200   -0.136500    0.829100
C      2.109300    0.029600    1.180400
C      3.067800    0.367100    0.203500
C      4.467700    0.585500    0.520900
C      5.239800    1.725900    0.397000
N      6.562100    1.606800    0.781800
C      6.777700    0.379400    1.199700
S      5.433000   -0.683600    1.159500
C      2.551000    0.446900   -1.100900
C      3.334300    0.661000   -2.218300
S      2.428100    0.594000   -3.681400
C      0.966400    0.254800   -2.840100
C      1.189400    0.274100   -1.495500
C      0.231300    0.032600   -0.453400
C     -1.150400   -0.096700   -0.391900
C     -2.244800    0.120300   -1.305400
C     -2.346500    0.666500   -2.547600
O     -3.668600    0.645800   -2.924000
C     -4.388400    0.121500   -1.881700
C     -3.545400   -0.189500   -0.845500
