30

C     -5.110900    0.741200   -0.370800
C     -6.167400   -0.314000   -0.632400
C     -5.656400   -1.545600   -0.772600
C     -4.233600   -1.399100   -0.615400
C     -3.833700   -0.062100   -0.372800
C     -2.471500    0.346700   -0.181200
C     -1.392400   -0.639000   -0.230000
C     -1.825600   -1.964500   -0.474000
C     -1.117200   -3.139000   -0.586800
N     -2.019100   -4.160600   -0.828700
C     -3.300300   -3.665900   -0.874200
C     -3.204300   -2.316700   -0.658500
C     -0.012200   -0.204700   -0.032800
N      1.138500   -0.945600   -0.037400
C      2.249500   -0.154400    0.188800
C      1.781800    1.138100    0.342400
C      0.375600    1.099500    0.203500
C     -0.602700    2.132200    0.269000
C     -0.349400    3.436800    0.492800
Si    -1.906400    4.435300    0.498400
C     -2.855000    2.856100    0.166800
C     -2.047300    1.775300    0.077700
C      3.582100   -0.699400    0.231300
S      3.856400   -2.404700   -0.006300
C      5.562600   -2.269400    0.176800
C      5.918700   -0.971000    0.411500
C      7.212800   -0.397100    0.623300
C      7.214900    0.937000    0.829800
Si     5.442300    1.643500    0.770700
C      4.792300   -0.097400    0.439500
