27

C     -3.979600    1.355100    0.086500
C     -5.120800    0.398200   -0.107100
C     -4.643300   -0.842000   -0.277500
C     -3.197200   -0.820300   -0.214600
C     -2.787300    0.451900   -0.002800
C     -1.366900    0.806900    0.110100
C     -0.850300    2.098400    0.329300
C     -1.519900    3.294700    0.485200
N     -0.587600    4.306100    0.678500
C      0.689100    3.791000    0.652000
C      0.509100    2.459200    0.440400
C      1.477500    1.438500    0.323700
C      2.864800    1.473300    0.386000
C      3.258400    0.151900    0.199600
O      2.134800   -0.636700    0.032600
C      1.018700    0.158900    0.108800
C     -0.344800   -0.207600   -0.003400
C     -0.777200   -1.608800   -0.235800
C      0.003200   -2.701900   -0.371100
Si    -1.009800   -4.245500   -0.649200
C     -2.543200   -3.190500   -0.550700
C     -2.233700   -1.895300   -0.339600
C      4.577400   -0.413600    0.166900
C      4.909900   -1.742200   -0.023300
N      6.261100   -2.040500   -0.013600
C      6.939300   -0.932700    0.184200
S      6.016400    0.500200    0.366200
