28

C     -4.679800    0.169500   -0.210400
C     -5.538600   -1.075500   -0.309200
C     -4.823100   -2.211300   -0.322400
C     -3.439500   -1.814200   -0.233900
C     -3.292700   -0.412800   -0.164800
C     -2.020100    0.250800   -0.070300
C     -1.759900    1.651300    0.004600
C     -2.674700    2.684100    0.003000
N     -1.985500    3.885800    0.091200
C     -0.628300    3.656100    0.150800
C     -0.512400    2.301100    0.097200
C      0.653800    1.507500    0.122200
C      2.000700    1.841000    0.206100
C      2.654700    0.616100    0.185900
O      1.735900   -0.406900    0.093700
C      0.481300    0.144100    0.053500
C     -0.768700   -0.510500   -0.039500
C     -0.954200   -1.915900   -0.110800
C      0.046800   -2.861300   -0.100900
S     -0.571200   -4.463900   -0.203100
C     -2.196300   -3.914900   -0.262400
C     -2.259900   -2.545000   -0.205500
C      4.059100    0.214200    0.240400
C      5.085900    1.150200    0.334100
C      6.404500    0.701000    0.382200
C      6.661200   -0.663300    0.335500
C      5.583800   -1.526700    0.242400
N      4.297600   -1.119800    0.194100
