32

C     -4.977200    0.629600   -0.702200
C     -6.139700    0.148300    0.135400
C     -5.770200   -0.717600    1.085200
C     -4.340500   -0.844500    0.965700
C     -3.778700   -0.064400   -0.076000
C     -2.352500    0.027300   -0.420700
C     -1.791700    0.747000   -1.560300
C     -2.581800    1.403700   -2.545400
C     -2.066800    2.070800   -3.661600
C     -0.707800    2.123900   -3.846800
C      0.114400    1.504600   -2.915000
C     -0.375500    0.801700   -1.773000
C      0.529000    0.205800   -0.834300
C      1.946800    0.240500   -0.971200
C      2.792900   -0.208400    0.038200
N      2.312900   -0.644700    1.213000
C      0.966900   -0.753600    1.303300
C      0.016100   -0.432900    0.307600
C     -1.403200   -0.654600    0.438200
C     -2.020700   -1.558300    1.397000
C     -1.386100   -2.572100    2.083200
S     -2.439800   -3.443000    3.131400
C     -3.800300   -2.558900    2.588800
C     -3.438400   -1.627600    1.646500
C      4.245400   -0.145500   -0.058000
S      5.138900   -0.419100   -1.528400
C      6.679400   -0.107800   -0.778900
C      6.453500    0.156000    0.528800
C      7.133800    0.503400    1.727000
C      6.155500    0.633100    2.738800
N      4.880000    0.350000    2.255200
C      5.137800    0.110500    0.929600
