32

Si     3.587400   -1.832000   -2.513200
C      4.294800   -0.524500   -1.389600
C      3.345800    0.014800   -0.594100
C      3.562000    1.169000    0.297600
C      2.481700    1.730500    0.889700
C      1.196400    1.130700    0.707300
S     -0.211900    1.844900    1.302500
C     -1.236500    0.565300    0.742000
C     -0.451100   -0.504000    0.271300
C      0.908500   -0.038200    0.023700
C      1.987100   -0.588300   -0.764900
C      1.915500   -1.488200   -1.766000
C     -1.112000   -1.769900    0.090800
C     -0.328700   -2.943200   -0.039800
C     -0.896800   -4.194100   -0.262600
C     -2.270700   -4.307200   -0.335200
C     -3.067800   -3.176500   -0.139500
C     -2.530300   -1.883500    0.111800
C     -3.331500   -0.741100    0.403800
C     -4.795400   -0.792000    0.395600
C     -5.688100    0.252400    0.725600
C     -4.980900    1.382300    1.072600
C     -5.560900    2.568800    1.438100
N     -4.533800    3.444700    1.684600
C     -3.319800    2.822500    1.471300
C     -3.557900    1.517700    1.098800
C     -2.652700    0.480300    0.761800
C      4.824700    1.787000    0.551800
C      5.334200    2.996000    0.106300
N      6.605200    3.323400    0.539700
C      7.054600    2.360500    1.312300
S      6.003000    1.031100    1.560700
