33

C     -4.592100    1.958200    0.701700
C     -5.875800    1.667100   -0.019700
C     -5.767200    0.610700   -0.835600
C     -4.400500    0.097600   -0.743700
C     -3.685000    0.894600    0.153100
C     -2.320700    0.658000    0.399800
C     -1.505000    1.370400    1.314500
C     -1.855600    2.361400    2.199800
O     -0.764000    2.773500    2.908800
C      0.298500    2.042800    2.469200
C     -0.112700    1.166300    1.496500
C      0.683100    0.281300    0.756100
C      2.091500    0.163500    0.901600
C      2.827300   -0.643200    0.038000
C      2.131200   -1.281900   -0.987700
C      0.731000   -1.167600   -1.106600
C     -0.091100   -0.447000   -0.207300
C     -1.602600   -0.380800   -0.302300
C     -2.447700   -1.306000   -1.068100
C     -2.007900   -2.575900   -1.526400
C     -2.783600   -3.431800   -2.316500
C     -4.070000   -3.068000   -2.659500
C     -4.589500   -1.880700   -2.158700
C     -3.821300   -1.020600   -1.339800
C      4.286200   -0.763600    0.179400
S      5.034500   -2.318800    0.036200
C      6.605800   -1.698000    0.318200
C      6.575700   -0.345000    0.527500
N      7.696600    0.387600    0.776400
C      7.384000    1.701600    0.943500
C      6.092700    2.237800    0.874900
N      4.958600    1.525700    0.631700
C      5.239400    0.199600    0.455000
