30

C     -4.989600   -0.165800    0.063200
C     -5.679400   -0.204300    1.414700
C     -4.824000   -0.210500    2.450300
C     -3.508700   -0.176800    1.871000
C     -3.536900   -0.149200    0.459900
C     -2.350600   -0.112900   -0.364900
C     -2.258300   -0.083200   -1.783300
C     -3.282500   -0.082000   -2.704800
O     -2.787000   -0.048200   -3.987100
C     -1.418700   -0.027000   -3.903200
C     -1.099900   -0.047900   -2.584100
C      0.158700   -0.039600   -1.947800
C      1.451800   -0.008200   -2.447800
C      2.271400   -0.017200   -1.320600
O      1.476400   -0.052900   -0.181500
C      0.161400   -0.066900   -0.573200
C     -1.005300   -0.102100    0.221400
C     -1.041300   -0.130500    1.626800
C     -0.008000   -0.130900    2.527800
O     -0.498800   -0.164500    3.805900
C     -1.864800   -0.185900    3.726500
C     -2.239400   -0.166200    2.411800
C      3.705300    0.005100   -1.261300
S      4.748200    0.050200   -2.652700
C      6.206400    0.054900   -1.706800
C      5.845800    0.022800   -0.408900
C      6.406300    0.005600    0.891300
C      5.330300   -0.030400    1.804000
N      4.101800   -0.037100    1.148200
C      4.491300   -0.004300   -0.160400
