31

C      5.321000    0.773300    0.315600
C      6.459400   -0.219300    0.260600
C      6.042600   -1.471800    0.031900
C      4.603700   -1.402500   -0.081200
C      4.113600   -0.101700    0.077000
C      2.717200    0.219900    0.006500
C      2.137200    1.519300    0.156700
C      2.850300    2.674900    0.395500
S      1.860500    4.066900    0.524000
C      0.447400    3.145700    0.260900
C      0.719400    1.805400    0.079200
C     -0.295100    0.841600   -0.155900
C     -1.686500    1.146400   -0.226900
C     -2.634400    0.152600   -0.459200
C     -2.180200   -1.149000   -0.623000
C     -0.808600   -1.449000   -0.552600
C      0.208700   -0.486400   -0.317300
C      1.673700   -0.791100   -0.238800
C      2.219700   -2.147100   -0.401100
N      1.531100   -3.281000   -0.635600
S      2.596700   -4.536000   -0.736700
N      4.021000   -3.739000   -0.491500
C      3.707600   -2.444500   -0.318900
C     -4.053300    0.467800   -0.532000
S     -4.693100    1.576000   -1.689200
C     -6.312600    1.366100   -1.139800
C     -6.293500    0.483400   -0.116600
C     -7.303600   -0.058400    0.713600
C     -6.791500   -0.950400    1.662700
S     -5.051600   -1.207800    1.633800
C     -5.054000   -0.039800    0.253900
