27

C     -4.585000   -0.983200    0.943200
C     -5.786200   -0.311500    0.315700
C     -5.450400    0.627600   -0.579900
C     -4.008700    0.648600   -0.613200
C     -3.430400   -0.283600    0.267600
C     -2.003100   -0.463800    0.425700
C     -1.345700   -1.386300    1.296500
C     -1.989700   -2.269100    2.142300
S     -0.914500   -3.252900    3.067400
C      0.460300   -2.519700    2.356300
C      0.050200   -1.572300    1.460000
C      0.942200   -0.765200    0.684300
C      2.349400   -0.848300    0.750900
C      2.945200    0.050000   -0.113200
S      1.740700    0.941700   -0.956300
C      0.391100    0.159500   -0.191700
C     -1.031100    0.334100   -0.342300
C     -1.668900    1.270400   -1.225300
C     -1.059700    2.165400   -2.078100
S     -2.170400    3.123100   -2.978300
C     -3.514700    2.364500   -2.247200
C     -3.115600    1.409700   -1.344300
C      4.322300    0.295900   -0.343700
C      4.905000    0.460000   -1.549900
C      6.342100    0.695400   -1.520000
C      6.895100    0.717500   -0.293600
Si     5.599000    0.433800    1.039700
