28

C     -3.852900    1.646800   -2.252500
C     -5.335200    1.869600   -2.145000
C     -5.796000    1.315200   -1.013900
C     -4.703800    0.697300   -0.294300
C     -3.564600    0.878100   -0.996400
C     -2.247000    0.377000   -0.558500
C     -1.105700    0.604100   -1.342500
C      0.141900    0.117000   -0.905100
S      1.655400    0.282500   -1.711100
C      2.493900   -0.557100   -0.485500
C      1.640500   -0.977100    0.511200
C      0.276800   -0.588400    0.289400
C     -0.881600   -0.812800    1.072500
C     -2.137400   -0.336900    0.659600
C     -3.374200   -0.554700    1.459700
C     -3.465600   -1.207100    2.638300
Si    -5.228800   -1.227700    3.268700
C     -5.729400   -0.268500    1.750400
C     -4.667100   -0.022000    0.958500
C      3.919800   -0.778800   -0.602200
C      4.512800   -2.037300   -0.869500
C      5.933800   -2.250400   -0.965800
C      6.904900   -1.235100   -0.797100
C      6.297500   -0.015900   -0.524600
C      6.942700    1.171300   -0.294900
N      5.966800    2.116600   -0.056100
C      4.714300    1.541800   -0.127600
C      4.890900    0.212900   -0.429300
