32

Si     1.749900   -2.786200   -2.452700
C      2.046200   -0.949900   -2.502200
C      1.392600   -0.313700   -1.506800
C      1.559500    1.112000   -1.184600
C      1.007500    1.587300   -0.045600
C      0.194000    0.716500    0.747100
S     -0.436600    1.224300    2.247200
C     -1.359300   -0.232700    2.468300
C     -1.179300   -1.029000    1.336800
C     -2.054900   -2.174900    1.232400
C     -2.275300   -2.928100    0.114100
S     -3.388200   -4.189300    0.462400
C     -3.626600   -3.618100    2.068800
C     -2.878100   -2.491000    2.346600
C     -2.986400   -1.782000    3.568000
C     -3.795300   -2.116600    4.683800
C     -3.832900   -1.283800    5.800600
C     -3.079800   -0.113400    5.822000
C     -2.277300    0.232000    4.730000
C     -2.205900   -0.593500    3.585000
C     -0.155800   -0.597500    0.449700
C      0.548500   -1.207300   -0.651800
C      0.693500   -2.516400   -0.938000
C      2.345700    2.052800   -1.980200
C      3.626000    2.558200   -1.640500
C      4.373700    3.477200   -2.462600
C      3.924700    3.984800   -3.705700
C      2.671800    3.470900   -4.012200
C      1.921400    3.731400   -5.126900
O      0.745100    3.033900   -5.057200
C      0.752100    2.326100   -3.884700
C      1.921900    2.562200   -3.209300
