27

C     -5.023200   -1.842000    0.518500
C     -6.291400   -1.016000    0.635800
C     -6.080200    0.305900    0.521900
C     -4.665400    0.460200    0.321600
C     -3.976700   -0.772900    0.308800
C     -2.560900   -0.928500    0.128300
C     -1.959600   -2.207600    0.129200
C     -0.580000   -2.383400   -0.045300
C      0.217200   -1.267700   -0.223000
C      1.655100   -1.195700   -0.419000
C      2.006600    0.099800   -0.539300
C      0.784500    1.007400   -0.451000
C     -0.321600    0.021000   -0.233900
C     -1.702000    0.220600   -0.061500
C     -2.431400    1.448700   -0.043800
C     -1.983200    2.736800   -0.189200
O     -3.034800    3.611700   -0.104300
C     -4.171300    2.876800    0.097100
C     -3.845800    1.550300    0.140100
C      3.364100    0.480700   -0.744400
S      3.732200    1.774400   -1.854600
C      5.432700    1.661500   -1.599700
C      5.718400    0.688800   -0.683300
C      6.974900    0.261600   -0.147900
C      6.894600   -0.722500    0.773700
Si     5.079400   -1.240700    1.076500
C      4.545400    0.037500   -0.211200
