31

C     -4.857500    2.207200    0.495500
C     -6.180800    1.547700    0.225900
C     -5.990800    0.250500   -0.057200
C     -4.578400   -0.055300   -0.007800
C     -3.900200    1.066200    0.310100
C     -2.428700    1.130000    0.403200
C     -1.807100    2.300100    0.842100
C     -0.416100    2.399900    0.872700
C      0.405200    1.394500    0.356200
C      1.821900    1.625000    0.378400
C      2.792000    0.771500   -0.185900
C      4.218200    1.017400   -0.125800
S      4.900800    2.480600   -0.788800
C      6.527600    2.053200   -0.362900
C      6.484700    0.857400    0.250800
O      7.543800    0.163700    0.748300
C      6.881200   -0.945400    1.244100
C      5.493400   -0.919000    1.052700
C      5.241100    0.292000    0.383600
C      2.206100   -0.307500   -0.856900
C      2.916500   -1.205500   -1.623000
S      1.885400   -2.301700   -2.438700
C      0.483500   -1.557200   -1.791500
C      0.777100   -0.572700   -0.873400
C     -0.215500    0.210100   -0.180600
C     -1.632900    0.018500    0.000300
C     -2.367300   -1.283200   -0.122200
C     -1.842900   -2.521800    0.002000
Si    -3.140600   -3.855200   -0.187100
C     -4.423600   -2.508600   -0.270800
C     -3.853900   -1.289900   -0.185300
