26

C     -2.612600    3.359100   -0.562900
C     -4.114900    3.452800   -0.514000
C     -4.697300    2.276000   -0.233200
C     -3.651000    1.267100   -0.063500
C     -2.418100    1.905500   -0.257900
C     -1.265800    1.151800   -0.148100
O     -0.005500    1.625900   -0.307700
C      0.837200    0.579400   -0.120400
C      2.228300    0.661200   -0.201300
C      2.969400   -0.512800    0.015400
C      2.279200   -1.702800    0.303400
C      0.875300   -1.754900    0.379600
C      0.125800   -0.582400    0.161600
C     -1.266300   -0.212500    0.146100
C     -2.537900   -0.857300    0.343400
C     -2.625600   -2.233800    0.643900
C     -3.862500   -2.852500    0.834000
C     -5.034600   -2.113900    0.728800
C     -4.976900   -0.751500    0.432600
C     -3.743300   -0.098100    0.235100
C      4.438500   -0.492600   -0.055900
C      5.201600    0.434800    0.665400
C      6.592900    0.423700    0.577300
C      7.192100   -0.522000   -0.236300
N      6.504300   -1.435200   -0.951500
C      5.153100   -1.395700   -0.845700
