31

C      4.767300    1.319600   -2.171200
C      6.207000    0.869400   -2.009900
C      6.369200   -0.058500   -1.051100
C      5.059500   -0.297700   -0.502000
C      4.077200    0.481700   -1.118700
C      2.713000    0.412800   -0.742000
S      1.416500    1.312800   -1.426700
C      0.237500    0.598100   -0.391600
C     -1.146300    0.895800   -0.408300
C     -2.054500    0.275200    0.465600
C     -3.476800    0.570600    0.463400
C     -4.213700    1.041800    1.586100
C     -5.619700    1.356600    1.572300
C     -6.448600    1.235000    0.435900
C     -5.718500    0.768100   -0.647600
C     -6.218300    0.520000   -1.899400
N     -5.170400    0.050600   -2.661800
C     -4.014500    0.000800   -1.908900
C     -4.324400    0.453800   -0.647900
C     -1.477700   -0.650100    1.369100
N     -2.139400   -1.359800    2.309400
S     -1.024100   -2.302400    3.102300
N      0.362400   -1.854900    2.297900
C     -0.048600   -0.973700    1.403600
C      0.835800   -0.313500    0.468200
C      2.232300   -0.430100    0.272700
C      3.247700   -1.257800    0.925800
C      3.233000   -2.194800    1.916600
O      4.512600   -2.652600    2.118500
C      5.328500   -1.994200    1.242200
C      4.586800   -1.124600    0.484900
