31

Si     3.869600    2.864700   -1.718500
C      4.288900    1.308900   -0.790200
C      3.178900    0.629100   -0.428600
C      3.189500   -0.702400    0.206000
C      2.001300   -1.299400    0.450900
C      0.788600   -0.608800    0.138600
S     -0.714800   -1.360500    0.367900
C     -1.635100    0.044400   -0.064900
C     -0.715000    1.068000   -0.328100
C     -1.242200    2.408900   -0.489300
N     -0.482500    3.490500   -0.560800
S     -1.566900    4.743700   -0.698800
N     -2.996500    3.895700   -0.637200
C     -2.683000    2.589200   -0.482200
C     -3.595000    1.523700   -0.326000
C     -5.040000    1.815700   -0.330600
C     -5.942900    0.843900   -0.136600
C     -5.507400   -0.518800    0.059400
C     -6.368300   -1.540800    0.224200
Si    -5.470900   -3.158000    0.391200
C     -3.865100   -2.209600    0.196000
C     -4.059500   -0.879600    0.061900
C     -3.055700    0.220900   -0.116000
C      0.660000    0.674500   -0.378000
C      1.891500    1.318000   -0.780400
C      2.072800    2.419900   -1.533800
C      4.350800   -1.458000    0.540700
C      4.849300   -1.979400    1.719200
C      6.050500   -2.664500    1.412700
C      6.250800   -2.553300    0.055400
N      5.213000   -1.825000   -0.466300
