29

C     -4.905400   -0.229200    2.578800
C     -6.352000    0.001300    2.192000
C     -6.519900    0.227600    0.878100
C     -5.206100    0.167000    0.282100
C     -4.219700   -0.099300    1.239100
C     -2.856400   -0.204600    0.892500
S     -1.532500   -0.522300    1.932500
C     -0.384300   -0.456300    0.651900
C      0.999400   -0.638200    0.791500
C      1.767900   -0.540800   -0.357000
N      1.226200   -0.310900   -1.569200
C     -0.111300   -0.135300   -1.694500
C     -0.976500   -0.196500   -0.590500
C     -2.391000   -0.054600   -0.413800
C     -3.399500    0.227800   -1.443600
C     -3.213300    0.421700   -2.782700
S     -4.727200    0.721200   -3.555700
C     -5.594400    0.586000   -2.075000
C     -4.757800    0.319500   -1.015300
C      3.227400   -0.731900   -0.333500
C      3.754500   -1.853500   -1.004400
C      5.117100   -2.130600   -0.988000
C      5.983100   -1.286900   -0.300900
C      5.504400   -0.148500    0.363300
C      6.402600    0.696200    1.037000
C      5.958900    1.844900    1.689000
C      4.609800    2.168900    1.669500
C      3.703800    1.337800    1.006000
C      4.117000    0.153000    0.347900
