29

C     -4.405500   -1.180300    1.673200
C     -5.689900   -0.572200    1.139500
C     -5.488400    0.337400    0.170000
C     -4.062300    0.409400   -0.021200
C     -3.375900   -0.467000    0.840800
C     -1.967500   -0.608400    0.874700
C     -1.105900    0.137900    0.018600
C      0.352400    0.006100    0.044400
C      1.055800    0.782200    0.970600
C      2.454200    0.715300    1.057000
C      3.156500    1.525400    2.016100
N      2.618500    2.390600    2.897000
S      3.876900    3.050700    3.751900
N      5.164800    2.272900    3.052700
C      4.652500    1.462100    2.114600
C      5.394500    0.612100    1.274100
C      4.646000   -0.156200    0.356100
C      3.212200   -0.142400    0.210900
C      2.489900   -0.946900   -0.742000
C      3.134000   -1.840800   -1.637800
C      2.436400   -2.622500   -2.561200
C      1.059200   -2.540700   -2.624500
C      0.386500   -1.677000   -1.764500
C      1.064300   -0.869100   -0.818100
C     -1.803400    1.022000   -0.844100
C     -1.210000    1.856700   -1.762500
S     -2.375000    2.777800   -2.632200
C     -3.691200    2.067700   -1.783000
C     -3.248100    1.152000   -0.862800
