31

C      6.835900    1.266500    0.531900
C      5.688200    2.271800    0.616600
C      4.488900    1.661500    0.482800
C      4.679500    0.262800    0.303800
C      6.073100    0.002900    0.329500
C      6.364600   -1.319500    0.165200
S      4.917000   -2.229600   -0.019200
C      3.868700   -0.833100    0.121400
C      2.439000   -0.924000    0.048000
C      1.787300   -2.087600   -0.156500
C      0.381700   -1.787200   -0.164500
C      0.097500   -0.431800    0.029300
C      1.442500    0.235300    0.176400
C     -1.251600    0.123800    0.057600
C     -1.599400    1.503600    0.204100
C     -0.687600    2.530300    0.327200
S     -1.419300    4.073000    0.463300
C     -2.983100    3.394500    0.365200
C     -2.953400    2.021900    0.229900
C     -4.133100    1.234700    0.154400
C     -5.455200    1.759300    0.213100
C     -6.554300    0.913800    0.199800
C     -6.347200   -0.452200    0.153400
C     -5.043800   -0.967900    0.086100
C     -3.875300   -0.165700    0.038300
C     -2.481900   -0.696200   -0.077600
C     -2.083100   -2.060300   -0.344900
C     -2.840600   -3.148300   -0.717800
O     -2.060700   -4.259700   -0.886200
C     -0.769800   -3.888200   -0.669600
C     -0.734800   -2.554600   -0.372000
