21

C      5.722300    0.206100    0.125700
C      5.162200   -1.182600   -0.179300
C      3.809900   -1.175200   -0.192600
C      3.334600    0.137000    0.084500
C      4.458300    0.979500    0.278200
C      4.107300    2.268900    0.551800
S      2.395000    2.429300    0.567500
C      2.104400    0.741000    0.200900
C      0.787500    0.188600    0.067400
C     -0.337500    0.921700    0.212400
C     -1.510600    0.072600    0.016600
C     -1.062100   -1.224500   -0.257200
C      0.433600   -1.259100   -0.247800
C     -1.944100   -2.262600   -0.490500
C     -3.311400   -1.984300   -0.446100
C     -3.791900   -0.683900   -0.171900
C     -5.171000   -0.422400   -0.131300
C     -5.651800    0.859800    0.139000
C     -4.760900    1.901500    0.373100
C     -3.386000    1.663800    0.337600
C     -2.879000    0.375600    0.066300
