31

C      6.950800   -0.749600    1.267000
C      5.950600   -0.590500    2.416300
C      4.697700   -0.379900    1.952200
C      4.717900   -0.374100    0.532800
C      6.044700   -0.591500    0.094000
C      6.149600   -0.597300   -1.268500
S      4.603800   -0.329500   -1.992900
C      3.786000   -0.215600   -0.457700
C      2.378900    0.036000   -0.380300
C      1.550900   -0.954400   -0.797000
C      0.154300   -0.745700   -0.658800
N     -0.759800   -1.647200   -1.102600
C     -2.030200   -1.214500   -0.783200
C     -3.274500   -1.768900   -1.075800
Si    -3.634900   -3.267700   -2.099300
C     -5.450800   -2.966700   -1.794100
C     -5.679600   -1.887200   -1.023600
C     -4.456100   -1.169700   -0.582200
C     -4.391400   -0.053300    0.267100
C     -5.537500    0.536200    0.849500
C     -5.438600    1.590800    1.757600
C     -4.189900    2.066700    2.125400
C     -3.042100    1.516100    1.554300
C     -3.111200    0.492800    0.584400
C     -1.911800   -0.030700   -0.025800
C     -0.522200    0.328900   -0.111200
C      0.285200    1.467100    0.228600
C     -0.097600    2.730100    0.496400
Si     1.364200    3.838700    0.822500
C      2.481500    2.406900    0.424100
C      1.776300    1.295200    0.121200
