24

C      6.052600   -0.248600    1.452500
C      4.851700   -0.257100    2.400800
C      3.698800   -0.010300    1.737800
C      3.976200    0.174800    0.356300
C      5.374500    0.049300    0.159500
C      5.742000    0.241100   -1.142800
S      4.355100    0.580200   -2.112800
C      3.256200    0.447600   -0.775700
C      1.838800    0.609000   -0.950500
C      1.148600    1.403200   -1.856800
C     -0.221100    1.171300   -1.586400
N     -1.477500    1.531500   -1.986300
C     -2.390900    0.847200   -1.210100
C     -3.789200    0.878600   -1.238400
C     -4.489100    0.067900   -0.322400
C     -5.889500    0.054500   -0.300100
C     -6.562800   -0.751100    0.609800
C     -5.808500   -1.521200    1.472600
N     -4.458000   -1.536600    1.483200
C     -3.808500   -0.756000    0.600800
C     -2.419400   -0.762000    0.599800
C     -1.700600    0.038400   -0.303500
C     -0.329500    0.275800   -0.576400
N      0.928500   -0.084900   -0.181900
