31

C      6.504500    2.331900    0.259100
C      5.321400    2.992300    0.975000
C      4.239500    2.180300    0.990800
C      4.556300    0.966100    0.328600
C      5.897000    1.024800   -0.119600
C      6.281400   -0.114800   -0.770500
S      4.973400   -1.244800   -0.828600
C      3.902700   -0.198200    0.041500
C      2.535300   -0.605000    0.309200
C      1.433900    0.011400   -0.323400
C      0.081100   -0.342800   -0.084400
C     -0.948600    0.322100   -0.767100
C     -2.304900   -0.015200   -0.543700
C     -3.448400    0.563600   -1.154600
C     -3.472900    1.573400   -2.092400
N     -4.798400    1.828100   -2.416000
C     -5.637600    0.997300   -1.700300
C     -4.800500    0.238500   -0.942000
C     -5.089200   -0.785900   -0.012000
C     -6.285000   -1.341500    0.424200
C     -5.881600   -2.297800    1.336200
O     -4.518500   -2.334000    1.459100
C     -4.011000   -1.380400    0.608900
C     -2.643500   -1.044500    0.386900
C     -1.624500   -1.716700    1.075200
C     -0.274600   -1.370200    0.842400
C      0.810000   -2.024400    1.522300
N      0.704500   -3.008400    2.434600
S      2.244600   -3.393900    2.905800
N      3.122900   -2.334000    1.987600
C      2.244900   -1.629700    1.250300
