29

C      7.938400    0.379600    0.324500
C      7.149900    1.666100    0.575500
C      5.817700    1.449000    0.491600
C      5.576300    0.080600    0.194700
C      6.823800   -0.582000    0.090300
C      6.688200   -1.910500   -0.195600
S      5.019800   -2.324500   -0.333500
C      4.469000   -0.706200    0.004800
C      3.037700   -0.371200    0.028000
C      2.029900   -1.299400    0.255100
C      0.687700   -0.886000    0.258100
C     -0.323700   -1.808300    0.502100
C     -1.662800   -1.415400    0.488400
C     -2.075400   -0.093700    0.212200
C     -1.036900    0.871200    0.049700
C     -1.412300    2.226100   -0.070400
C     -2.738200    2.641300    0.010800
C     -3.760200    1.705500    0.134100
C     -5.137400    2.221000    0.313500
C     -6.192800    1.401100    0.419300
C     -6.005800   -0.019800    0.266700
C     -7.030200   -0.890500    0.191100
Si    -6.425900   -2.595200   -0.238400
C     -4.689000   -1.893900   -0.297100
C     -4.648700   -0.593300    0.069200
C     -3.452000    0.316200    0.141900
C      0.349100    0.461100    0.038100
C      1.454800    1.305500   -0.171900
N      2.760100    0.932700   -0.179200
