28

C      6.836800   -0.894200    0.543500
C      5.760300   -1.876800    1.006200
C      4.525000   -1.458700    0.647900
C      4.624000   -0.224300   -0.050100
C      5.994100    0.131800   -0.133800
C      6.194600    1.302600   -0.809100
S      4.687800    1.952100   -1.341200
C      3.759300    0.655300   -0.646400
C      2.321800    0.632100   -0.749400
C      1.553100    1.024600   -1.819700
C      0.141100    0.884100   -1.594200
C     -0.920200    1.180600   -2.470100
C     -2.244400    0.978400   -2.080700
C     -2.595400    0.481000   -0.822400
C     -3.995900    0.310600   -0.525900
N     -4.926000    0.629600   -1.458100
C     -6.244800    0.475200   -1.194800
C     -6.743900   -0.001500   -0.003400
C     -5.831800   -0.341000    0.979900
C     -4.445600   -0.188300    0.728800
C     -3.392700   -0.490100    1.630700
C     -3.610700   -0.983400    2.898100
S     -2.148400   -1.243900    3.741600
C     -1.217200   -0.694600    2.408800
C     -1.983800   -0.317000    1.328200
C     -1.510500    0.175800    0.086900
C     -0.155500    0.382000   -0.317700
S      1.331400    0.111800    0.529100
