28

C     -6.601900   -0.110700   -0.546600
C     -5.687500    0.062700   -1.764100
C     -4.382800    0.043200   -1.407200
C     -4.285000   -0.132800   -0.003000
C     -5.587900   -0.228500    0.539700
C     -5.578000   -0.400300    1.896400
S     -3.952200   -0.435400    2.486200
C     -3.272400   -0.234500    0.906900
C     -1.839900   -0.163600    0.731700
C     -1.133800    1.009600    0.407800
C      0.292700    1.089600    0.211600
C      0.815700    2.341300   -0.101000
C      2.179900    2.531800   -0.312200
C      3.090700    1.477500   -0.214200
C      4.453900    1.749700   -0.436400
C      5.430900    0.736500   -0.347200
C      6.853100    0.782200   -0.529500
C      7.452800   -0.441800   -0.346900
S      6.318700   -1.653500    0.044700
C      4.999900   -0.545500   -0.028000
C      3.634700   -0.829200    0.196200
C      2.640700    0.176100    0.103500
C      1.210400   -0.026500    0.313500
C      0.445600   -1.204700    0.623800
C      0.861100   -2.505500    0.784100
O     -0.199000   -3.324300    1.057100
C     -1.318100   -2.551100    1.072100
C     -0.978300   -1.248300    0.816100
