28

C     -6.451800   -0.380600   -0.989400
C     -5.315100   -0.821200   -1.914000
C     -4.114200   -0.725800   -1.299000
C     -4.295600   -0.236200    0.023200
C     -5.682100   -0.032100    0.238000
C     -5.959800    0.414400    1.499400
S     -4.503800    0.573800    2.411800
C     -3.497000    0.057900    1.095700
C     -2.069900   -0.002700    1.226400
C     -1.277100   -0.225200    2.340500
C      0.075500   -0.181900    1.929000
N      1.202500   -0.348700    2.656500
C      2.357100   -0.240500    1.950000
C      2.487400    0.021400    0.569800
C      1.289300    0.183800   -0.130000
N      1.167700    0.439900   -1.453600
C      2.320500    0.547900   -2.149900
C      3.601700    0.415900   -1.615800
C      4.736100    0.553100   -2.463900
C      6.061900    0.437500   -2.021800
C      6.230500    0.168900   -0.648600
N      7.413600    0.023100   -0.034000
S      7.082600   -0.276400    1.561300
N      5.427000   -0.234600    1.541400
C      5.044600    0.018100    0.276800
C      3.689400    0.144000   -0.213700
C      0.089900    0.077400    0.569500
N     -1.216400    0.191000    0.164900
