31

C     -6.640100    0.022900   -1.135100
C     -5.619500   -0.741500   -1.984100
C     -4.366000   -0.593000   -1.498000
C     -4.404600    0.232500   -0.343700
C     -5.744600    0.614800   -0.101100
C     -5.868400    1.413600    1.000600
S     -4.324500    1.678500    1.729100
C     -3.480600    0.721000    0.541100
C     -2.065200    0.523700    0.611800
C     -1.273600    1.597500    0.406500
C      0.199900    1.521800    0.377000
N      0.801900    2.723600    0.220600
C      2.144600    2.730100    0.081200
C      2.937800    1.584000   -0.022900
C      4.361800    1.737100   -0.241100
S      5.353100    3.167700   -0.300500
C      6.789200    2.277900   -0.601700
C      6.566300    0.921400   -0.680000
C      5.203500    0.659400   -0.467800
C      4.579600   -0.611900   -0.522400
C      5.111500   -1.820900   -0.842400
O      4.079600   -2.718100   -0.882200
C      2.930900   -2.031700   -0.578100
C      3.201200   -0.714700   -0.268700
C      2.274300    0.314700    0.070200
C      0.885000    0.289900    0.416600
C      0.073600   -0.872100    0.862900
C      0.530800   -2.008700    1.429700
Si    -0.860000   -3.178800    1.879500
C     -2.050200   -1.852400    1.352900
C     -1.408500   -0.751900    0.906300
