29

C      7.159900    0.289700   -0.081700
C      6.409600    1.576600   -0.437500
C      5.077500    1.437900   -0.248200
C      4.803800    0.128400    0.226800
C      6.023700   -0.581500    0.332400
C      5.847600   -1.861900    0.777800
S      4.172000   -2.174000    1.062300
C      3.687300   -0.578500    0.579500
C      2.278900   -0.184300    0.623200
C      1.893100    0.960000    1.302400
C      0.549500    1.330000    1.324800
C     -0.466000    0.583900    0.674800
C     -0.098000   -0.588100   -0.025900
C      1.287600   -0.934000   -0.028600
C     -1.108400   -1.355800   -0.687200
C     -0.797000   -2.546500   -1.403600
C     -1.754100   -3.315400   -2.058300
C     -3.068700   -2.916000   -2.018100
C     -3.408700   -1.754200   -1.323100
C     -2.468100   -0.934700   -0.637700
C     -2.823600    0.273800    0.087400
C     -4.126100    0.836200    0.238700
C     -5.470200    0.384600   -0.273700
C     -6.400700    1.443000    0.260400
C     -5.755000    2.375400    0.970400
C     -4.352500    2.013700    0.965100
C     -3.297000    2.644500    1.546600
N     -2.048800    2.160700    1.436800
C     -1.799900    1.017500    0.737600
