28

C      6.909700    1.662800    0.007600
C      5.787300    2.671400   -0.252000
C      4.575700    2.070100   -0.253500
C      4.739200    0.680900   -0.009200
C      6.119200    0.406800    0.146400
C      6.367700   -0.917100    0.378200
S      4.889300   -1.810300    0.401900
C      3.914700   -0.406000    0.095300
C      2.457400   -0.515100    0.016100
C      1.839700   -1.458400   -0.797100
C      0.443900   -1.528400   -0.859800
C     -0.392100   -0.658900   -0.115300
C      0.255500    0.294100    0.700500
C      1.642100    0.348700    0.752500
N     -0.399500    1.181100    1.452600
C     -1.750300    1.171500    1.440300
C     -2.558800    0.309300    0.703600
C     -4.005800    0.388900    0.766200
Si    -5.121300    1.579200    1.774500
C     -6.639100    0.736500    1.052700
C     -6.340000   -0.263000    0.204100
C     -4.904000   -0.450900    0.049300
C     -4.228500   -1.368700   -0.726600
C     -4.773300   -2.325700   -1.538500
O     -3.773300   -3.033200   -2.132100
C     -2.585500   -2.517700   -1.690300
C     -2.797700   -1.478500   -0.815000
C     -1.847900   -0.650300   -0.110400
