32

C     -5.169400    2.380600   -0.265000
C     -6.415100    1.566800   -0.521900
C     -6.156400    0.256800   -0.664200
C     -4.723300    0.074500   -0.515300
C     -3.958500   -1.067800   -0.624400
C     -2.559200   -0.977700   -0.458100
C     -1.935900    0.269100   -0.120100
C     -2.754300    1.418500   -0.096600
C     -4.125300    1.306300   -0.273000
C     -0.468800    0.326000    0.115600
C      0.266600    1.361700    0.730900
C     -0.182600    2.474400    1.403000
O      0.865300    3.233200    1.837200
C      2.009600    2.584500    1.488300
C      1.699200    1.404900    0.859400
C      2.592700    0.430200    0.417300
C      1.871200   -0.660000   -0.129400
C      0.427100   -0.742500   -0.250000
C     -0.209300   -2.013300   -0.693900
C      0.450800   -3.141600   -1.038400
Si    -0.713900   -4.546700   -1.422300
C     -2.121200   -3.381800   -1.059100
C     -1.684800   -2.147700   -0.722000
C      4.034000    0.478500    0.557500
C      4.714900    0.643000    1.773100
N      6.071400    0.697400    1.987100
C      6.944500    0.574700    0.946400
C      6.413700    0.388000   -0.344300
N      7.112300    0.242600   -1.481800
S      5.996000    0.062200   -2.696400
N      4.583400    0.151800   -1.833500
C      4.919600    0.336300   -0.543100
