26

C     -5.395500    0.227000   -1.386600
C     -6.601800   -0.191300   -0.582800
C     -6.281300   -0.602800    0.653500
C     -4.839700   -0.498400    0.789900
C     -4.038200   -0.801600    1.867500
C     -2.656500   -0.608000    1.739100
C     -2.051700   -0.112300    0.543100
C     -2.909600    0.186700   -0.539800
C     -2.334800    0.670000   -1.711300
N     -1.014000    0.875700   -1.890500
C     -0.190400    0.597500   -0.872800
C      1.166500    0.816300   -1.076500
C      2.129300    0.566700   -0.088800
C      1.692300    0.070200    1.137800
C      0.332700   -0.158000    1.365900
C     -0.641700    0.099900    0.371800
C      3.560800    0.805500   -0.327700
S      4.072400    2.284100   -1.068500
C      5.730900    1.861600   -0.994300
C      5.905800    0.634300   -0.412300
N      7.133000    0.071400   -0.231900
C      7.019100   -1.146600    0.364400
C      5.813900   -1.746800    0.748300
N      4.577500   -1.202200    0.583000
C      4.657400    0.022200   -0.019500
C     -4.288800   -0.011000   -0.399200
