27

C      4.959100   -1.434100   -0.013400
C      6.158000   -0.524200   -0.138900
C      5.818400    0.770300   -0.234300
C      4.369300    0.848200   -0.181900
C      3.554100    1.961800   -0.242400
C      2.167000    1.782400   -0.170800
C      1.583900    0.499900   -0.039100
C      0.183200    0.332200    0.032000
C     -0.901600    1.380000   -0.009700
C     -2.178600    0.540800    0.098800
C     -1.892300   -0.772400    0.209900
C     -0.454200   -0.911000    0.163700
C      0.320300   -2.077200    0.230000
N     -0.107000   -3.343900    0.351900
S      1.254700   -4.292200    0.378500
N      2.443100   -3.143800    0.232700
C      1.827600   -1.949300    0.157600
C      2.449100   -0.645000    0.022200
C      3.835300   -0.439600   -0.051600
C     -3.526900    1.005600    0.111400
S     -3.895000    2.578800    0.759600
C     -5.582300    2.435600    0.470500
C     -5.861300    1.240300   -0.122000
S     -7.427700    0.545300   -0.676800
C     -6.458600   -0.821300   -1.202600
C     -5.082300   -0.733700   -0.962600
C     -4.709000    0.475600   -0.309400
