26

C     -5.171900    0.231400   -0.142200
C     -6.220800   -0.791700    0.220500
C     -5.686900   -1.947500    0.642500
C     -4.242700   -1.802200    0.600300
C     -3.268000   -2.717300    0.938300
C     -1.922400   -2.341900    0.812100
C     -1.506400   -1.065300    0.353300
C     -0.089900   -0.769000    0.256100
N      0.822800   -1.704800    0.599500
C      2.151900   -1.425400    0.508500
C      2.699200   -0.222200    0.076500
C      1.782200    0.760900   -0.283100
C      0.395500    0.495100   -0.196400
C     -0.640300    1.392600   -0.529300
C     -0.507900    2.679100   -0.994800
N     -1.777800    3.174300   -1.184300
C     -2.712500    2.219900   -0.844800
C     -2.030400    1.099700   -0.433700
C     -2.560200   -0.137100    0.010000
C     -3.909300   -0.524300    0.140300
C      4.149900   -0.003000    0.005500
C      4.988000   -0.906400   -0.670000
C      6.368300   -0.697700   -0.736800
C      6.935200    0.418800   -0.128000
C      6.123500    1.326900    0.546300
C      4.743200    1.117700    0.611200
