31

C     -5.668600   -0.584800    0.486700
C     -6.703700    0.514100    0.530700
C     -6.167700    1.732500    0.362500
C     -4.739500    1.551800    0.193200
C     -3.735800    2.460100   -0.009700
N     -2.435700    2.096500   -0.147400
C     -2.061500    0.790000   -0.091200
C     -3.075500   -0.203500    0.121300
C     -4.414800    0.202400    0.261100
C     -2.550800   -1.518400    0.161700
C     -3.224500   -2.700100    0.345800
O     -2.348900   -3.747300    0.319500
C     -1.103000   -3.230400    0.115800
C     -1.176300   -1.863500    0.013400
C     -0.118000   -0.962400   -0.197000
C      1.273500   -1.359200   -0.340200
C      2.319900   -0.442700   -0.545500
C      3.709100   -0.809300   -0.662900
S      4.313300   -1.819100   -1.933900
C      5.952700   -1.758300   -1.349400
C      5.958300   -1.002800   -0.232300
C      6.831600   -0.514800    0.770600
C      6.049400    0.249000    1.664500
N      4.709300    0.274600    1.282600
C      4.740100   -0.486000    0.148200
C      1.841200    0.869000   -0.604400
C      2.588400    2.001600   -0.833300
N      1.726100    3.071100   -0.824000
C      0.441000    2.637900   -0.596300
C      0.463600    1.267900   -0.464200
C     -0.651500    0.402500   -0.242300
