28

C     -5.692800   -0.562900    1.335900
C     -6.910500   -0.069100    0.591700
C     -6.601700    0.491700   -0.587800
C     -5.161100    0.422000   -0.733300
C     -4.333700    0.843200   -1.736500
N     -2.990500    0.680900   -1.677700
C     -2.414400    0.080800   -0.596600
C     -3.215500   -0.378100    0.478100
C     -2.637900   -0.995900    1.597300
C     -1.259800   -1.174800    1.683000
C     -0.411900   -0.748200    0.662800
C      0.996200   -0.966400    0.825900
C      1.983000   -0.594800   -0.110500
C      3.403800   -0.807300    0.096400
S      4.033900   -2.420900    0.043400
C      5.653900   -1.903800    0.341800
C      5.677700   -0.550500    0.479500
Si     6.987800    0.759100    0.814700
C      5.603700    2.077600    0.737400
C      4.399100    1.515400    0.494100
C      4.415600    0.088700    0.347600
C      1.439200    0.021000   -1.244200
C      2.193400    0.454300   -2.311800
S      1.223400    1.163400   -3.531000
C     -0.216400    0.876500   -2.642800
C      0.018400    0.255600   -1.435500
C     -1.001300   -0.113400   -0.490100
C     -4.595800   -0.192300    0.380500
