23

C     -5.016700    0.906000   -0.237500
C     -6.145200    0.035600    0.262900
C     -5.710800   -1.100600    0.830600
C     -4.263200   -1.094400    0.753600
C     -3.328900   -2.003100    1.177600
N     -1.997700   -1.806700    1.005700
C     -1.560200   -0.669900    0.391400
C     -2.464600    0.306300   -0.065300
C     -1.953000    1.445600   -0.680400
N     -0.638100    1.673800   -0.872400
C      0.229900    0.745200   -0.443100
C      1.584700    0.955300   -0.632100
C      2.519100    0.018300   -0.195900
N      2.127000   -1.124500    0.424800
C      0.799600   -1.319300    0.601600
C     -0.192100   -0.431300    0.192300
C      3.977700    0.211200   -0.385400
C      4.916100   -0.724000    0.058500
C      6.274600   -0.488500   -0.145800
C      6.672300    0.675200   -0.789200
C      5.690800    1.557200   -1.202900
N      4.367400    1.353300   -1.018100
C     -3.827000    0.070800    0.128600
