29

Si    -0.563200    3.520400    2.076800
C     -1.789200    2.268300    1.466500
C     -1.197500    1.267600    0.786500
C     -1.819200    0.118100    0.200400
C     -1.005900   -0.956400   -0.159000
N     -1.821500   -1.996400   -0.542100
C     -3.142000   -1.599700   -0.562200
C     -4.310200   -2.322900   -0.924300
C     -5.572700   -1.700600   -0.936200
C     -5.498700   -0.356000   -0.605800
C     -6.571500    0.504100   -0.623500
N     -6.095600    1.763800   -0.312800
C     -4.730300    1.722600   -0.102900
C     -4.377600    0.412500   -0.237600
C     -3.117700   -0.264800   -0.165200
C      0.464000   -0.967800   -0.145000
C      1.209900   -2.065800   -0.582000
C      2.607000   -2.007000   -0.598700
C      3.302600   -0.855300   -0.194100
C      2.538500    0.238500    0.257700
C      1.132300    0.201900    0.292500
C      0.301200    1.334000    0.801300
C      0.797400    2.439200    1.401200
C      4.780000   -0.816500   -0.238800
C      5.501000    0.347200   -0.512200
C      6.894100    0.300400   -0.535600
C      7.538500   -0.903400   -0.288900
C      6.758700   -2.016300   -0.034000
N      5.407700   -1.999400   -0.008500
