30

C      4.139100    0.466500   -1.787700
C      5.537900    0.437200   -2.409600
C      6.360400   -0.391200   -1.727500
C      5.648600   -0.964100   -0.645400
C      5.944300   -1.828800    0.361500
S      4.546300   -2.051900    1.346800
C      3.567100   -0.984400    0.388000
C      4.317100   -0.481900   -0.648000
C      2.192300   -0.729700    0.716300
C      1.511000   -0.884800    1.910900
C      0.168400   -0.516500    1.678600
C      0.050400   -0.072600    0.372300
N      1.270600   -0.298300   -0.214100
C     -1.205400    0.351600   -0.249400
C     -1.367900    0.893800   -1.538900
C     -0.356300    1.334900   -2.367700
S     -0.935500    1.931400   -3.885500
C     -2.574800    1.677300   -3.439600
C     -2.607300    1.156600   -2.179300
C     -3.795700    0.842600   -1.457800
C     -5.124600    0.959600   -1.867300
C     -5.860100    0.504900   -0.795600
N     -4.990000    0.139900    0.209400
C     -3.676800    0.368500   -0.158500
C     -2.428400    0.176600    0.497200
C     -2.313400   -0.197500    1.945600
C     -3.293200   -0.168900    2.877100
Si    -2.668100   -0.680800    4.571800
C     -0.975300   -0.845200    3.842400
C     -0.977000   -0.551100    2.527700
