30

C      4.252100   -0.802600   -1.810400
C      5.768600   -0.975800   -1.960100
C      6.431300   -0.448600   -0.905100
C      5.494500    0.098400    0.005300
C      5.554200    0.736800    1.205800
S      3.950900    1.109500    1.734500
C      3.219100    0.415900    0.325700
C      4.188700   -0.089700   -0.502000
C      1.778400    0.429500    0.177300
C      0.880900   -0.266000    1.030300
C     -0.551100   -0.274900    0.869000
C     -1.204500    0.442600   -0.198200
C     -0.310200    1.124500   -1.026800
C     -0.578800    1.907800   -2.121900
N      0.624200    2.381600   -2.597500
C      1.660800    1.908300   -1.825000
C      1.111900    1.114900   -0.845800
C     -2.646500    0.392500   -0.298400
O     -3.321100    1.046200   -1.276400
C     -4.637700    0.760800   -1.029000
C     -5.831400    1.137500   -1.674700
C     -6.894900    0.566000   -1.005800
S     -6.443000   -0.397300    0.358700
C     -4.773000   -0.045500    0.061800
C     -3.476500   -0.296400    0.550700
C     -2.944100   -1.041000    1.633100
C     -3.626600   -1.763900    2.541300
Si    -2.477100   -2.560400    3.770200
C     -1.037700   -1.774000    2.863600
C     -1.451800   -1.039300    1.808500
