31

C     -5.530800    0.291900    1.178600
C     -7.038700    0.522600    1.325900
C     -7.608000    0.820600    0.136900
C     -6.609400    0.826000   -0.867100
C     -6.585500    1.056500   -2.206000
S     -4.969800    0.894000   -2.779800
C     -4.323500    0.514800   -1.204100
C     -5.353400    0.516100   -0.289700
C     -2.910200    0.258300   -1.013000
C     -1.874700    0.506500   -1.901700
C     -0.604300    0.125400   -1.385000
C     -0.688400   -0.403800   -0.112200
S     -2.300200   -0.443900    0.434700
C      0.466100   -0.836100    0.695300
N      0.181500   -1.379700    1.901300
C      1.229400   -1.691200    2.692700
C      2.563200   -1.409400    2.417100
C      3.564000   -1.741300    3.409100
C      4.933700   -1.428200    3.317000
C      5.170100   -0.704400    2.164700
C      6.373500   -0.131300    1.845000
N      6.169700    0.596800    0.697000
C      4.852300    0.494900    0.300900
C      4.214200   -0.380100    1.149900
C      2.834900   -0.770800    1.153500
C      1.770600   -0.602500    0.209700
C      1.877500   -0.250100   -1.240000
C      2.957800   -0.457700   -2.023400
Si     2.672600    0.099400   -3.783600
C      0.905300    0.451100   -3.321300
C      0.677700    0.181000   -2.020400
