27

C     -4.272900   -1.665000   -0.515600
C     -5.771600   -1.963400   -0.619400
C     -6.509900   -0.938400   -0.139700
C     -5.643000    0.088100    0.307200
C     -5.808200    1.315100    0.866500
S     -4.263700    2.018300    1.152900
C     -3.388300    0.648900    0.514200
C     -4.296200   -0.302300    0.102200
C     -1.937600    0.636200    0.478200
C     -1.072900    1.627900    0.912600
C      0.263100    1.245300    0.709700
C      1.407500    2.020300    1.039100
C      1.483800    3.255100    1.601000
O      2.810200    3.567000    1.715100
C      3.526100    2.506000    1.215700
C      2.688100    1.502200    0.775400
C      3.007300    0.261800    0.202500
C      4.291500   -0.276700   -0.070600
S      5.865800    0.395100    0.202300
C      6.672800   -0.956400   -0.431700
C      5.793700   -1.920300   -0.852800
C      4.419500   -1.549700   -0.654200
C      3.249400   -2.282100   -0.963500
C      1.979700   -1.765100   -0.700500
C      1.831400   -0.501000   -0.120500
C      0.499400    0.006800    0.139500
S     -1.055600   -0.705300   -0.152500
