32

C      4.995300    0.474500    1.592200
C      6.499100    0.742200    1.726400
C      7.126300    0.639300    0.532100
C      6.175100    0.313700   -0.465400
C      6.202400    0.085800   -1.805900
S      4.605100   -0.273700   -2.358100
C      3.905900   -0.103700   -0.771200
C      4.897000    0.208500    0.127600
C      2.506700   -0.306900   -0.555600
C      1.675100    0.669800   -0.972500
C      0.211400    0.609800   -0.783400
C     -0.564000    1.651400   -1.251400
N     -1.901200    1.703900   -1.125100
C     -2.545500    0.688000   -0.507600
C     -1.856700   -0.435300    0.013500
N     -2.525900   -1.439700    0.630800
C     -3.868400   -1.384000    0.756400
C     -4.660300   -0.352500    0.295400
C     -6.087200   -0.405700    0.489400
C     -6.990800    0.584800    0.063800
C     -6.333200    1.629800   -0.572300
C     -7.022500    2.708400   -1.070100
S     -5.961900    3.839800   -1.799500
C     -4.581700    2.877800   -1.444800
C     -4.904200    1.713500   -0.783100
C     -3.964000    0.712700   -0.356200
C     -0.448700   -0.460800   -0.137100
C      0.449500   -1.563100    0.341500
C      0.087000   -2.700500    0.973500
Si     1.539900   -3.797000    1.365400
C      2.630000   -2.518300    0.573100
C      1.919600   -1.463900    0.118200
