23

C     -3.783000   -1.017900   -1.392200
C     -5.305500   -1.189300   -1.372600
C     -5.867000   -0.487800   -0.361600
C     -4.849400    0.183800    0.358900
C     -4.800900    1.004400    1.442700
S     -3.158800    1.436600    1.757700
C     -2.550500    0.503400    0.426600
C     -3.594400   -0.104300   -0.226100
C     -1.117200    0.474200    0.138400
C     -0.652100    0.763700   -1.156700
N      0.643000    0.757000   -1.579000
C      1.498400    0.434800   -0.589700
C      1.147400    0.129900    0.731400
C     -0.183400    0.140900    1.133400
O      2.242700   -0.166600    1.517400
C      3.235100   -0.024800    0.630700
C      2.893300    0.323600   -0.622700
N      4.083500    0.396000   -1.309200
C      5.126800    0.090000   -0.464700
C      6.509900   -0.083600   -0.254600
C      6.585400   -0.434200    1.092300
O      5.360700   -0.488800    1.721300
C      4.546600   -0.161700    0.719400
