31

C      5.301700   -0.194900    1.745500
C      6.828200   -0.279400    1.652700
C      7.243600   -0.254400    0.366400
C      6.115100   -0.157000   -0.483600
C      5.914300   -0.094400   -1.827000
S      4.221900    0.015000   -2.143500
C      3.794900   -0.024200   -0.459200
C      2.415300    0.039600   -0.042900
C      1.912200    0.022600    1.251700
C      0.518300    0.108500    1.078600
N     -0.671100    0.153100    1.745100
C     -1.698200    0.244900    0.813000
C     -1.146900    0.258500   -0.473300
C      0.242000    0.170500   -0.233300
O      1.385700    0.130800   -0.961300
C     -1.996000    0.346800   -1.600700
C     -1.405200    0.357800   -2.882900
C     -2.195000    0.443100   -4.023700
C     -3.574100    0.517900   -3.895900
C     -4.166400    0.507400   -2.626400
C     -3.407800    0.421900   -1.430300
C     -3.973200    0.408100   -0.108300
C     -5.386700    0.480700    0.143700
C     -6.002100    0.471600    1.414500
C     -5.136700    0.382900    2.521500
N     -5.517100    0.359600    3.807700
S     -4.128400    0.248200    4.705600
N     -2.984000    0.224500    3.503700
C     -3.648900    0.303800    2.332200
C     -3.087800    0.317800    1.014900
C      4.936100   -0.118800    0.300200
