20

C      4.204800   -1.386800    0.485300
C      5.514400   -0.630200    0.456100
C      5.358700    0.653600    0.091300
C      3.943900    0.867600   -0.153700
N      3.415500    2.042000   -0.539000
C      2.069200    2.027400   -0.714800
C      1.274200    0.898800   -0.516200
C     -0.186100    0.832300   -0.687100
C     -0.709200   -0.386300   -0.437300
Si     0.599900   -1.646600    0.077000
C      1.884700   -0.310000   -0.110000
C      3.247800   -0.318000    0.072500
C     -2.095600   -0.671800   -0.501700
S     -2.699600   -2.103900   -1.299500
C     -4.350600   -1.729300   -0.974900
C     -4.418600   -0.555200   -0.294500
C     -5.454500    0.248200    0.241000
C     -4.910800    1.334300    0.835600
C     -3.382700    1.323300    0.724000
C     -3.168800    0.050600   -0.029300
