21

C     -4.495300   -0.670300   -0.338200
C     -5.416300    0.506200   -0.570700
C     -4.751700    1.671400   -0.635100
C     -3.341800    1.377800   -0.453000
N     -2.379000    2.307400   -0.459000
C     -1.131900    1.813100   -0.270900
C     -0.828500    0.446400   -0.081400
C      0.492700   -0.034800    0.113000
N      1.703500    0.623700    0.164400
C      2.735700   -0.258300    0.374600
C      2.175100   -1.516800    0.460800
C      0.768700   -1.390700    0.298400
C     -0.294600   -2.313300    0.293000
C     -1.606900   -1.861800    0.103000
C     -1.882100   -0.498300   -0.083200
C     -3.163200    0.007400   -0.276200
C      4.113300    0.126400    0.475100
N      5.066400   -0.758500    0.677300
C      6.291500   -0.124000    0.732900
C      6.260500    1.243600    0.572100
S      4.642500    1.758800    0.342600
