29

C     -5.060700   -0.842000    0.769200
C     -6.416700   -0.365900    0.298400
C     -6.325800    0.609400   -0.620500
C     -4.914700    0.866300   -0.840500
N     -4.442700    1.778900   -1.694500
C     -3.089400    1.848400   -1.739500
C     -2.205000    1.058000   -0.978400
C     -0.804000    1.184400   -1.075200
C      0.066200    0.390600   -0.311200
C      1.475700    0.541900   -0.429900
C      2.441800   -0.208500    0.290600
C      3.881100   -0.024000    0.139100
C      4.789700    0.117500    1.201500
N      6.151100    0.306700    1.141600
C      6.792500    0.362400   -0.059300
C      6.019400    0.228700   -1.227600
N      6.472300    0.258200   -2.491400
S      5.149900    0.043100   -3.468500
N      3.945000   -0.077000   -2.335700
C      4.526700    0.032600   -1.125700
C      1.901600   -1.172700    1.190900
N      2.600400   -2.006600    1.982400
S      1.501900   -2.922800    2.816300
N      0.081400   -2.306400    2.230300
C      0.407300   -1.353800    1.337300
C     -0.509700   -0.557400    0.573300
C     -1.910300   -0.694800    0.680600
C     -2.761800    0.109900   -0.092100
C     -4.149300    0.028200   -0.037200
