31

C      5.558100    0.299000    0.299300
C      6.152500    1.302500   -0.707100
C      5.202100    1.858400   -1.495300
C      3.981700    1.291100   -1.085800
O      2.689000    1.399800   -1.439600
C      1.985600    0.544700   -0.618500
C      2.853000   -0.110000    0.265400
C      4.126400    0.391200   -0.061100
C      2.309400   -1.033300    1.191500
C      3.189400   -1.691600    2.080000
C      2.707800   -2.607900    3.007900
C      1.349300   -2.876400    3.058600
C      0.470100   -2.228300    2.182000
C      0.905700   -1.283700    1.216200
C      0.029200   -0.599800    0.301200
C     -1.407100   -0.811500    0.285800
C     -2.347800   -0.186400   -0.574800
C     -3.774300   -0.430000   -0.508200
S     -4.418700   -2.020800   -0.823000
C     -6.063900   -1.531100   -0.568800
C     -6.053900   -0.222500   -0.258700
O     -7.136400    0.552000    0.021700
C     -6.501800    1.758600    0.259300
C     -5.107700    1.710600    0.127600
C     -4.820800    0.379200   -0.222800
C     -1.746200    0.706500   -1.469300
C     -2.429500    1.415900   -2.431300
S     -1.383500    2.414500   -3.349600
C     -0.003900    1.880900   -2.478900
C     -0.321300    0.962500   -1.502600
C      0.602400    0.333200   -0.633000
