27

C      5.458000   -0.848700    0.118000
C      6.422500    0.342900    0.072300
C      5.765000    1.523900    0.056700
C      4.391000    1.211800    0.089300
S      3.013200    2.150000    0.091900
C      1.949700    0.744300    0.145900
C      2.779000   -0.388600    0.156100
C      4.153000   -0.135700    0.125300
C      2.158600   -1.679800    0.196600
C      2.822300   -2.873800    0.212300
S      1.682700   -4.157300    0.260300
C      0.352200   -3.060100    0.257900
C      0.744600   -1.734700    0.221500
C     -0.163100   -0.643700    0.211700
C     -1.602000   -0.804000    0.235200
C     -2.513300    0.265800    0.215700
C     -3.949500    0.079700    0.236000
C     -4.712000   -0.172300    1.319000
C     -6.128100   -0.361500    1.044300
C     -6.477700   -0.277700   -0.252500
Si    -4.983800    0.075700   -1.346100
C     -1.879200    1.516400    0.198600
C     -2.577300    2.703600    0.221700
S     -1.536600    4.056200    0.187800
C     -0.140000    3.057800    0.162400
C     -0.428500    1.710600    0.176000
C      0.515600    0.644200    0.174500
