28

Si     1.828300   -0.381300   -0.961400
C      3.176000    0.084800    0.237400
C      2.684300    0.561700    1.393700
C      1.217200    0.585300    1.442400
C      0.455800    0.181800    0.293100
C     -0.999700    0.127900    0.213100
C     -1.794300   -0.183900   -0.963100
C     -1.305800   -0.258900   -2.296400
C     -2.086500   -0.619500   -3.402300
C     -3.424500   -0.902200   -3.233200
C     -3.978400   -0.780400   -1.966700
C     -3.195600   -0.402500   -0.843600
C     -3.881300   -0.226400    0.395100
C     -5.283200   -0.391700    0.726400
C     -5.583100   -0.088000    2.026700
S     -4.208400    0.402600    2.873600
C     -3.143500    0.203200    1.504400
C     -1.726400    0.397100    1.435900
C     -0.992200    0.845700    2.606800
N     -1.487300    1.212500    3.804800
S     -0.229400    1.631700    4.783700
N      1.036800    1.372100    3.757000
C      0.508500    0.947700    2.596100
C      4.555300   -0.050600   -0.061500
C      5.253900    0.341800   -1.193800
C      6.641900    0.021800   -1.139400
C      6.976100   -0.610800    0.033900
S      5.627000   -0.813800    1.058800
