32

C      7.536900    1.115800    0.413200
C      8.294000    1.081000   -0.920800
C      7.515600    0.638700   -1.934900
C      6.252900    0.363500   -1.373700
S      4.816600   -0.203200   -2.000600
C      4.054300   -0.124000   -0.433800
C      2.753800   -0.451100   -0.068000
Si     1.350400   -1.079600   -1.067100
C      0.312300   -1.059600    0.513000
C      1.008500   -0.651100    1.592400
C      2.397000   -0.291100    1.270800
N      3.213900    0.155800    2.231100
C      4.483500    0.474300    1.882300
C      4.944300    0.349000    0.557300
C      6.205500    0.618400   -0.029300
C     -1.031200   -1.504300    0.543100
S     -1.247800   -3.199100    0.847400
C     -2.935900   -3.102200    0.686200
C     -3.361800   -1.821300    0.428400
C     -2.263400   -0.871100    0.373500
C     -2.473500    0.534800    0.141100
C     -1.473800    1.548200    0.110200
C     -1.789400    2.879200   -0.136100
C     -3.106400    3.232400   -0.351300
C     -4.107800    2.255700   -0.309800
C     -3.859400    0.880900   -0.060000
C     -4.955800   -0.104100   -0.009500
C     -6.319900    0.242000   -0.203300
C     -7.372200   -0.683900   -0.151400
C     -7.114100   -2.019700    0.100100
C     -5.803000   -2.429600    0.298400
C     -4.731900   -1.493800    0.245800
