26

C      1.718900   -2.234000    1.064600
C      0.331300   -1.675400    0.909700
C     -0.996600   -2.038200    1.187000
C     -1.810400   -0.987700    0.754000
N     -0.982100   -0.007400    0.223700
C      0.292200   -0.435900    0.325400
C      1.600600   -0.003800    0.017300
C      2.482700   -1.048300    0.442600
C      3.859200   -0.869000    0.249200
O      4.873800   -1.727100    0.575800
C      6.043300   -1.122200    0.197100
C      5.817800    0.117900   -0.372700
C      4.435800    0.251500   -0.327200
C      3.564600    1.296000   -0.753400
C      3.792400    2.498100   -1.341000
O      2.568100    3.099300   -1.529300
C      1.599200    2.245100   -1.048200
C      2.183500    1.107000   -0.555000
C     -3.240100   -0.847300    0.801300
S     -4.270700   -2.087700    1.476500
C     -5.734600   -1.212600    1.176200
C     -5.402600   -0.045500    0.592000
N     -6.265000    0.933600    0.193600
C     -5.382500    1.875200   -0.327300
C     -4.043100    1.441100   -0.227700
C     -4.053700    0.155900    0.387400
