31

Si    -0.304300   -4.422100   -1.110700
C      1.219000   -3.386300   -0.818000
C      0.889200   -2.111700   -0.529900
C      1.816400   -1.016300   -0.329900
C      3.253800   -1.104700   -0.052500
C      3.867100    0.055100    0.256300
Si     2.626900    1.466100    0.208900
C      1.291800    0.240500   -0.326500
C     -0.153300    0.562700   -0.441400
C     -1.050600   -0.453800   -0.210100
C     -2.447800   -0.103700    0.189900
C     -3.273600   -0.881100    1.037400
C     -2.877200   -1.978900    1.770100
S     -4.164900   -2.672300    2.673200
C     -5.253400   -1.438100    2.194600
C     -4.640700   -0.532900    1.363100
C     -5.301000    0.609900    0.926800
C     -4.441700    1.454800    0.196900
C     -3.073500    1.141700   -0.132400
C     -2.182000    2.149700   -0.745000
C     -2.575700    3.333000   -1.262400
Si    -1.144700    4.280600   -1.976700
C     -0.053800    2.844500   -1.500500
C     -0.723200    1.874100   -0.838300
C     -0.564600   -1.829900   -0.471200
C     -1.329500   -2.893300   -0.802800
C      5.237700    0.223600    0.580000
C      5.869000    1.166400    1.384300
N      7.244300    1.082500    1.490100
C      7.666500    0.070100    0.770800
S      6.466900   -0.819500   -0.060200
