29

C      0.519700   -2.615500    1.183700
C      1.543800   -1.625600    0.726300
C      2.936300   -1.463000    0.698700
C      3.213300   -0.230500    0.090500
N      1.977200    0.332100   -0.240000
C      1.002000   -0.514500    0.147200
C     -0.418500   -0.592500    0.131100
C     -1.390300    0.265900   -0.338100
C     -2.757600   -0.091800   -0.211900
C     -3.060700   -1.349200    0.408000
C     -4.390500   -1.745500    0.555200
C     -5.432000   -0.937200    0.108400
C     -5.177000    0.294000   -0.500200
C     -6.256200    1.080900   -0.937800
C     -6.046700    2.313800   -1.549000
C     -4.752400    2.774600   -1.730000
C     -3.670300    2.000900   -1.298900
C     -3.840600    0.739400   -0.671800
C     -2.046600   -2.206400    0.878300
C     -0.725100   -1.827200    0.739300
C      4.491200    0.435300   -0.194300
C      4.613400    1.687200   -0.820800
N      5.756600    2.387300   -1.128300
C      6.980800    1.876700   -0.822100
C      7.036300    0.621800   -0.187200
N      8.152500   -0.026000    0.183800
S      7.657800   -1.445900    0.880000
N      6.015600   -1.300600    0.741500
C      5.758600   -0.124000    0.138000
