25

C     -2.747900    1.355400   -0.972300
C     -1.299100    1.124000   -0.663600
C     -0.027200    1.510500   -1.112800
C      0.904800    0.853300   -0.305200
N      0.207000    0.102100    0.633400
C     -1.106500    0.271300    0.390200
C     -2.347700   -0.168700    0.914500
N     -2.500900   -1.002100    1.939100
C     -3.783600   -1.283500    2.266300
C     -4.882200   -0.727800    1.563700
C     -6.295700   -0.905300    1.760600
C     -7.058400   -0.190400    0.866700
S     -6.098800    0.704000   -0.221700
C     -4.637200    0.145500    0.490400
C     -3.330500    0.453800    0.130900
C      2.368600    0.907800   -0.319600
C      2.973500    2.130500    0.010300
C      4.358600    2.247600    0.053200
C      5.155400    1.142600   -0.234600
C      4.582100   -0.091100   -0.579300
C      5.404100   -1.191900   -0.874600
C      4.856700   -2.422700   -1.233400
C      3.478200   -2.568200   -1.308100
C      2.647400   -1.484300   -1.015800
C      3.171100   -0.224900   -0.634600
