27

C      1.136300    1.902200   -0.671000
C      0.284800    0.718900   -0.148300
C     -1.139800    0.685300   -0.084500
C     -1.876200   -0.441200    0.406600
C     -3.326100   -0.490500    0.499900
C     -4.016500   -0.728100    1.714900
C     -5.426600   -0.775400    1.828600
C     -6.287500   -0.585500    0.737200
C     -5.667400   -0.334700   -0.509300
N     -6.310700   -0.123700   -1.667800
S     -5.139600    0.112600   -2.818800
N     -3.766500   -0.031500   -1.901600
C     -4.160600   -0.282000   -0.639500
C     -1.019500   -1.492600    0.801600
C     -1.337300   -2.737100    1.284700
O     -0.192900   -3.448100    1.536100
C      0.872900   -2.658200    1.195300
C      0.412000   -1.457400    0.736000
C      1.108700   -0.369400    0.270900
C      2.450800    0.010600    0.064700
N      3.700500   -0.502600    0.227700
C      4.561100    0.472100   -0.206100
C      5.972200    0.430800   -0.243800
C      6.460700    1.589600   -0.742000
Si     5.040600    2.851600   -1.209300
C      3.829400    1.568000   -0.630900
C      2.489900    1.287700   -0.464900
