27

C     -1.916100    1.032000   -1.279900
C     -0.660000    0.670700   -0.451500
C      0.661500    1.102900   -0.727900
C      1.766500    0.723800    0.085400
C      3.129900    1.138100   -0.195100
S      3.576700    2.794700    0.046800
C      5.210400    2.528600   -0.444200
C      5.373700    1.220200   -0.779400
Si     6.786300    0.142000   -1.400100
C      5.571800   -1.336800   -1.413400
C      4.339100   -0.967000   -1.001400
C      4.208700    0.417200   -0.649000
C      1.428800   -0.111200    1.181400
C      2.313000   -0.593300    2.118900
S      1.526600   -1.573200    3.294900
C     -0.016700   -1.349100    2.569500
C      0.072600   -0.550400    1.459000
C     -0.986800   -0.172400    0.654800
C     -2.381500   -0.388700    0.605800
N     -3.345400   -1.041800    1.285500
C     -4.556100   -0.807300    0.645400
C     -5.841100   -1.263700    0.963700
C     -6.895700   -0.867100    0.135200
C     -6.675800   -0.045800   -0.969200
C     -5.388300    0.406400   -1.280900
C     -4.309000    0.022800   -0.464700
C     -2.923100    0.273400   -0.466200
