23

C     -0.352800   -1.631100    0.080600
C      1.057000   -1.069700    0.058500
C      2.400100   -1.455800    0.126700
C      3.149300   -0.278000    0.029700
O      2.299700    0.813000   -0.095600
C      1.062900    0.305500   -0.074700
C     -0.264700    0.756800   -0.148900
N     -0.950200    1.915900   -0.277000
C     -2.310900    1.606600   -0.278100
C     -3.462500    2.434100   -0.384700
C     -4.763800    1.876800   -0.360500
C     -4.756500    0.492600   -0.226200
C     -5.868700   -0.314400   -0.173500
N     -5.430800   -1.624200   -0.036400
C     -4.049400   -1.671700   -0.000200
C     -3.660400   -0.372700   -0.117200
C     -2.373200    0.213600   -0.144500
C     -1.112700   -0.334400   -0.062500
C      4.570600   -0.123400    0.047200
C      5.585800   -1.052400    0.160600
C      6.817300   -0.350900    0.120800
C      6.522600    0.986900   -0.015800
N      5.158700    1.113500   -0.059300
