24

C      3.933600   -1.030100   -1.179300
C      4.937000   -0.134600   -0.471000
C      6.311700    0.128000   -0.408200
C      6.468400    1.145100    0.527900
N      5.226600    1.503300    1.031400
C      4.317900    0.722600    0.418700
C      2.935500    0.492000    0.386900
N      1.797600    0.930500    0.953200
C      0.745700    0.201000    0.405800
C     -0.629500    0.282900    0.666300
C     -1.501600   -0.574700   -0.029600
C     -0.977000   -1.491100   -0.952300
C      0.398700   -1.570800   -1.210500
C      1.276000   -0.714500   -0.525300
C      2.666500   -0.511900   -0.522000
C     -2.937900   -0.521800    0.217500
C     -3.658300   -1.543700    0.890600
C     -5.067100   -1.503700    1.150000
C     -5.908600   -0.440200    0.762300
C     -5.204100    0.561000    0.094500
C     -5.814600    1.693100   -0.386000
S     -4.685700    2.724000   -1.171000
C     -3.378400    1.648000   -0.868500
C     -3.785000    0.532800   -0.171800
