26

C     -1.433600    1.318400   -2.268300
C     -2.752000    1.050400   -1.519200
C     -4.015200    1.404500   -1.956500
C     -5.106800    1.081700   -1.145600
C     -4.949900    0.411800    0.092200
C     -6.071200    0.104300    0.879400
C     -5.934900   -0.555500    2.101400
C     -4.673100   -0.919400    2.557100
C     -3.543900   -0.624100    1.791600
C     -3.659100    0.042700    0.552500
C     -2.581300    0.375400   -0.274500
C     -1.165600    0.184900   -0.174300
N     -0.258900   -0.351000    0.675300
C      1.002200   -0.182300    0.122600
C      2.267700   -0.549200    0.587700
C      3.364600   -0.222000   -0.223300
C      3.099800    0.439500   -1.428900
N      1.886400    0.808700   -1.905500
C      0.849100    0.481800   -1.102500
C     -0.521200    0.702100   -1.270100
C      4.735600   -0.560600    0.177800
C      5.757900    0.397100    0.205400
C      7.047800    0.039400    0.595100
C      7.285500   -1.276600    0.951000
N      6.337000   -2.235300    0.941400
C      5.094200   -1.856000    0.555400
