26

C     -1.657900   -1.497500    1.148100
C     -3.135300   -1.149200    0.818000
C     -4.283100   -1.849000    1.297800
C     -5.612400   -1.471700    0.952000
C     -5.643200   -0.357200    0.104900
C     -6.739200    0.271400   -0.421300
O     -6.332400    1.324100   -1.202100
C     -4.961000    1.364200   -1.171100
C     -4.500900    0.350000   -0.380700
C     -3.217800   -0.009700   -0.050400
C     -1.900000    0.417100   -0.315800
N     -1.248900    1.373500   -1.013200
C      0.095900    1.149300   -0.783800
C      1.379400    1.651500   -1.108900
C      2.283200    0.828600   -0.444800
N      1.579600   -0.131800    0.253900
C      0.246700    0.068400    0.043500
C     -1.031900   -0.410600    0.350900
C      3.721600    0.884200   -0.424500
S      4.615600    2.102900   -1.304700
C      6.163500    1.516600   -0.795900
C      5.957100    0.449700   -0.000500
N      6.918100   -0.303300    0.608400
C      6.140500   -1.240900    1.281500
C      4.763100   -1.026300    1.060200
C      4.637500    0.104600    0.202700
