26

C     -2.153900    3.963700    0.888000
C     -1.014900    3.261100    0.506700
C     -1.051100    1.871100    0.269900
C      0.173000    1.144800   -0.064400
C      0.751000    0.253600    0.840400
C      1.923900   -0.368400    0.415500
N      2.726300   -1.289300    1.045500
C      3.789500   -1.635600    0.245800
C      4.839900   -2.523200    0.469000
C      5.750400   -2.626000   -0.571700
N      5.677200   -1.943700   -1.735500
C      4.645300   -1.085300   -1.928800
C      3.669900   -0.908400   -0.939000
C      2.490700   -0.106600   -0.830300
C      1.853400    0.815500   -1.667900
N      0.710800    1.431800   -1.275500
C     -2.296000    1.192800    0.388700
C     -3.413600    1.932000    0.790900
C     -3.372900    3.307500    1.049100
N     -4.477200    1.064200    0.865500
C     -4.105500   -0.203600    0.498200
C     -4.855300   -1.370400    0.417800
N     -4.261300   -2.508900   -0.001000
C     -2.957100   -2.473800   -0.346500
C     -2.153100   -1.345200   -0.285900
C     -2.751100   -0.158200    0.171100
