25

C     -3.076200   -3.265600    1.333900
C     -1.786700   -2.833400    1.017700
C     -1.534700   -1.510700    0.597100
C     -0.184400   -1.064300    0.267200
C      0.621900   -0.445400    1.227800
C      1.915400   -0.016900    0.905900
C      2.451900   -0.187700   -0.383800
C      3.817900    0.279400   -0.698200
C      4.234400    0.658100   -1.975600
N      5.491300    1.085900   -2.263900
C      6.336300    1.128600   -1.213100
C      5.943900    0.767100    0.061900
N      4.689900    0.343100    0.345100
C      1.635300   -0.824500   -1.335400
C      0.339900   -1.254400   -1.016400
C     -2.629400   -0.617200    0.498800
C     -3.896200   -1.094900    0.824400
C     -4.165000   -2.397200    1.242600
O     -4.834400   -0.123100    0.679600
C     -4.191800    0.998300    0.257600
N     -4.835000    2.155700    0.014400
C     -4.012800    3.144500   -0.395600
C     -2.639500    3.037300   -0.567900
C     -2.016900    1.817100   -0.304400
C     -2.825400    0.750200    0.127800
