22

C      0.783500    3.694100   -0.628600
C     -0.262600    2.770100   -0.662500
C     -0.056900    1.411100   -0.344600
C     -1.156400    0.448900   -0.383600
C     -1.535200   -0.145900   -1.601900
C     -2.582000   -1.074400   -1.686000
C     -3.232300   -1.378200   -0.491400
N     -4.269200   -2.208900   -0.171300
N     -4.552100   -2.175500    1.140800
N     -3.712600   -1.317000    1.707000
C     -2.895100   -0.814300    0.730600
C     -1.847900    0.114700    0.796800
C      1.249300    0.995000    0.012800
C      2.259400    1.953500    0.031200
C      2.075500    3.300100   -0.278100
O      3.447500    1.401400    0.389800
C      3.227600    0.077900    0.609000
N      4.206100   -0.768100    0.982300
C      3.776900   -2.036900    1.148500
C      2.475200   -2.482300    0.963900
C      1.495300   -1.569200    0.573500
C      1.885100   -0.230200    0.389200
