26

C      2.964100    2.481900    2.494800
C      1.693400    2.244400    1.979100
C      1.462500    1.211100    1.049900
C      0.120600    0.970900    0.519600
C     -0.325000    1.659700   -0.616900
C     -1.604000    1.443700   -1.148000
C     -2.463500    0.516600   -0.526600
C     -2.007600   -0.157700    0.608800
C     -0.733000    0.049600    1.152100
N     -3.021800   -0.993100    1.017900
C     -4.100100   -0.877400    0.188500
N     -5.245600   -1.569600    0.331400
C     -6.159500   -1.272900   -0.620800
C     -5.986600   -0.362000   -1.655300
C     -4.777500    0.327800   -1.755100
C     -3.790900    0.058100   -0.790900
C      2.556900    0.403000    0.637300
C      3.817100    0.673500    1.179800
C      4.050100    1.699100    2.104200
N      4.700800   -0.229300    0.637300
C      4.067100   -1.074700   -0.237400
C      4.570900   -2.122000   -0.998500
N      3.734500   -2.817900   -1.799200
C      2.429900   -2.472100   -1.836100
C      1.864300   -1.439400   -1.103200
C      2.722500   -0.708200   -0.264800
