23

C      0.852500    0.263700   -3.765900
C     -0.160000    0.284100   -2.806000
C      0.121100    0.208500   -1.422400
C     -0.953200    0.282700   -0.438800
C     -1.040200    1.290900    0.508700
N     -2.039400    1.361700    1.415700
C     -2.980700    0.412600    1.349700
N     -3.984600    0.457900    2.235700
C     -4.922900   -0.506200    2.145400
C     -4.862300   -1.498100    1.192100
N     -3.860300   -1.565700    0.292300
C     -2.915000   -0.618800    0.361700
N     -1.908300   -0.670900   -0.520400
C      1.475900    0.064200   -1.025300
C      2.450500    0.060700   -2.021900
C      2.189900    0.163200   -3.387200
O      3.693300   -0.056600   -1.489300
C      3.548600   -0.164600   -0.143500
N      4.597800   -0.307100    0.687000
C      4.241400   -0.422900    1.982400
C      2.941200   -0.406300    2.465900
C      1.884400   -0.251900    1.567300
C      2.197200   -0.113500    0.201700
