23

C     -0.995500    2.919000   -2.527600
C      0.001400    2.361100   -1.745300
C     -0.266800    1.283100   -0.875600
C      0.801400    0.778300   -0.020300
C      0.855300    1.042500    1.339800
N      1.851800    0.591400    2.132800
C      2.818900   -0.119600    1.540100
N      3.820500   -0.578800    2.302100
C      4.783500   -1.290200    1.682100
C      4.748900   -1.542700    0.328900
N      3.749600   -1.094300   -0.457500
C      2.780900   -0.383200    0.134900
N      1.777100    0.067900   -0.628600
C     -1.582800    0.717500   -0.824300
C     -2.569000    1.327200   -1.614300
C     -2.291300    2.420000   -2.461200
S     -4.109800    0.595000   -1.410600
C     -3.503400   -0.561400   -0.335500
N     -4.331800   -1.490600    0.187400
C     -3.731800   -2.375700    1.002300
C     -2.386700   -2.384800    1.311000
C     -1.569400   -1.403400    0.753300
C     -2.138400   -0.427400   -0.102500
