31

Si    -1.576000    3.852400    1.419700
C     -3.221900    3.083300    1.006300
C     -3.082300    1.823000    0.544500
C     -4.184000    0.959900    0.130200
C     -5.613500    1.298100    0.147100
C     -6.451300    0.340300   -0.283400
Si    -5.504200   -1.184400   -0.790300
C     -3.907000   -0.295000   -0.326200
C     -2.529500   -0.836100   -0.421800
C     -2.223100   -2.151200   -0.898200
N     -3.074700   -3.105500   -1.334000
S     -2.173900   -4.443500   -1.769500
N     -0.631100   -3.894200   -1.430200
C     -0.861300   -2.670300   -0.981600
C      0.188600   -1.816600   -0.566200
C      1.563900   -2.044900   -0.529700
C      2.090200   -0.863900   -0.037600
O      1.078600    0.028500    0.226500
C     -0.116100   -0.558700   -0.110600
C     -1.413500   -0.024400   -0.020100
C     -1.676700    1.345700    0.475200
C     -0.769200    2.257800    0.883900
C      3.420400   -0.387900    0.274200
C      3.702300    0.436400    1.394500
C      5.010500    0.899800    1.745900
C      6.174600    0.593000    1.012800
C      5.897000   -0.204800   -0.097300
C      6.880600   -0.610800   -0.964900
S      6.230200   -1.550400   -2.245500
C      4.627300   -1.407000   -1.635900
C      4.580900   -0.683100   -0.465900
