18

C      0.558700    3.213800    0.546000
C      1.540100    2.240800    0.392700
C      1.200100    0.892400    0.159500
C      2.254100   -0.097400    0.045600
N      2.260000   -1.272400    0.766300
C      3.407200   -1.801500    0.425800
O      4.121200   -1.051800   -0.448000
N      3.362300    0.091600   -0.693300
C     -0.168200    0.524900    0.052500
C     -1.121600    1.537800    0.222400
C     -0.791000    2.876300    0.471500
N     -2.364100    0.964100    0.098900
C     -2.263300   -0.372500   -0.184400
C     -3.259000   -1.315800   -0.407100
N     -2.911600   -2.589500   -0.688500
C     -1.601700   -2.906100   -0.748000
C     -0.561400   -2.012800   -0.535900
C     -0.904400   -0.684600   -0.230500
