17

C      4.779900   -0.436500   -0.387300
C      3.518600   -0.868400   -0.759700
C      2.401000   -0.208500   -0.239500
C      1.065800   -0.647200   -0.618600
N      0.692500   -1.623700   -1.420700
N     -0.687000   -1.614300   -1.435100
C     -1.063600   -0.632700   -0.640900
C     -2.400300   -0.175800   -0.289700
C     -3.515700   -0.820500   -0.833200
C     -4.778600   -0.371400   -0.487200
N     -5.000100    0.661500    0.351400
C     -3.914200    1.272600    0.867000
C     -2.612000    0.896800    0.581400
O     -0.000100    0.030200   -0.083300
C      2.609000    0.861300    0.636000
C      3.909900    1.219300    0.948800
N      4.998000    0.593400    0.455900
