28

C     -0.955400   -1.222700   -1.330200
C     -2.370200   -1.258600   -1.509400
C     -3.045100   -0.698100   -0.447200
S     -1.965500   -0.166500    0.765000
C     -0.575300   -0.648900   -0.128100
C      0.767000   -0.447400    0.384800
C      1.146100    0.117500    1.591200
C      2.560800    0.158300    1.769100
C      3.239000   -0.374000    0.693600
S      2.157700   -0.923200   -0.510300
C      4.670900   -0.510500    0.492100
C      5.335900   -1.755200    0.364900
C      6.751200   -1.890300    0.190400
C      7.645200   -0.800000    0.125800
C      6.986000    0.423800    0.248100
C      7.651800    1.623600    0.207000
S      6.564500    2.944300    0.367900
C      5.199600    1.904000    0.489300
C      5.560000    0.577200    0.425100
C     -4.474900   -0.568100   -0.255700
C     -5.354800   -1.661000   -0.058100
C     -6.777900   -1.525200    0.115300
C     -7.467800   -0.290100    0.100100
C     -6.584900    0.762100   -0.107700
C     -6.920100    2.088400   -0.192100
N     -5.749300    2.782600   -0.416100
C     -4.680100    1.912500   -0.478500
C     -5.171400    0.645000   -0.277700
