29

C      0.349700    0.527500    1.675900
C      1.766900    0.373200    1.731600
C      2.239200   -0.450500    0.732600
S      0.972200   -1.032800   -0.255000
C     -0.229600   -0.183600    0.637700
C     -1.626400   -0.268700    0.270100
N     -2.057100   -1.003600   -0.733600
C     -3.430000   -0.890500   -0.852600
C     -4.062000   -0.066900    0.062100
S     -2.858300    0.584800    1.110900
C     -5.467400    0.281700    0.232400
N     -5.838700    1.000100    1.344100
C     -7.141100    1.358100    1.566100
C     -8.237800    1.076900    0.761200
C     -7.910500    0.342700   -0.393400
N     -8.786500   -0.052400   -1.330500
S     -7.914500   -0.872700   -2.477800
N     -6.388900   -0.767100   -1.837400
C     -6.490100   -0.077600   -0.685300
C      3.622000   -0.851400    0.454900
C      4.048900   -2.104400    0.925700
C      5.355500   -2.532200    0.717300
C      6.252400   -1.710500    0.039500
C      5.858100   -0.452800   -0.442800
C      6.778700    0.360500   -1.124900
C      6.407500    1.611400   -1.615800
C      5.108600    2.065900   -1.433200
C      4.181600    1.269900   -0.756900
C      4.528100   -0.003100   -0.242200
