22

C      5.287200    0.956900   -1.629200
C      4.175500    0.378200   -2.223500
C      3.149800    0.038800   -1.344100
N      1.926600   -0.545500   -1.576700
C      1.221500   -0.683200   -0.401600
C     -0.110500   -1.256000   -0.354800
C     -0.444300   -2.502300   -0.874000
N     -1.682800   -3.046900   -0.851700
C     -2.692500   -2.349100   -0.274900
C     -2.462900   -1.081700    0.279000
C     -1.170100   -0.554400    0.227500
N     -1.221300    0.691700    0.810800
C     -2.490300    0.976800    1.252100
C     -2.992700    2.104000    1.898500
C     -4.345400    2.052000    2.198500
N     -5.163500    1.016200    1.910100
C     -4.650200   -0.069200    1.279800
C     -3.293600   -0.117600    0.933300
C      2.029300   -0.190100    0.607700
C      3.243800    0.268700    0.027100
C      4.412100    0.854100    0.529300
N      5.423700    1.196900   -0.306200
