21

C     -5.741200    0.839000   -0.800000
C     -4.499500    1.394300   -1.071600
C     -3.412600    0.650400   -0.618700
N     -2.061500    0.889500   -0.709200
C     -1.355400   -0.126500   -0.115900
C      0.069300   -0.122400   -0.072100
N      0.794800    0.853700   -0.596700
C      2.088600    0.478600   -0.344200
C      3.308900    1.088100   -0.647000
C      4.466400    0.436100   -0.243400
O      5.760000    0.828400   -0.421900
C      6.479400   -0.172500    0.163400
N      5.771900   -1.150100    0.689500
C      4.478100   -0.775100    0.437100
C      3.257100   -1.383300    0.739100
C      2.100400   -0.730600    0.335100
O      0.809400   -1.122600    0.513400
C     -2.267900   -1.040400    0.367700
C     -3.572100   -0.560900    0.056300
C     -4.870200   -1.034900    0.280400
N     -5.945100   -0.328900   -0.150800
