18

C      3.854800    0.224100    1.734200
C      2.529900    0.563400    1.961200
C      1.648400    0.199300    0.946200
N      0.292300    0.373200    0.835700
C     -0.180900   -0.146200   -0.349600
C     -1.482200   -0.187700   -0.867600
C     -2.596300    0.378300   -0.121700
C     -3.910000    0.381700   -0.554900
S     -4.921900    1.140600    0.606300
C     -3.550700    1.408500    1.595100
N     -2.401600    0.975700    1.124400
C     -1.573900   -0.802500   -2.113600
N     -0.536800   -1.330700   -2.810500
C      0.707500   -1.271300   -2.276300
C      0.918700   -0.675100   -1.026900
C      2.073200   -0.456900   -0.208900
C      3.436000   -0.754200   -0.340200
N      4.315200   -0.410600    0.633600
