18

C     -3.781200    1.538800   -0.171800
C     -2.456800    1.920100   -0.021100
C     -1.532400    0.881900   -0.110500
N     -0.163600    0.894000   -0.011700
C      0.354300   -0.373600   -0.164000
C      1.677800   -0.831200   -0.138500
C      2.790000    0.070300    0.074700
N      2.618600    1.431200    0.265500
C      3.852300    1.845000    0.414600
O      4.777700    0.858800    0.333100
N      4.074500   -0.322400    0.107100
C      1.821800   -2.200200   -0.332500
N      0.801500   -3.070600   -0.534500
C     -0.469400   -2.598200   -0.554100
C     -0.726900   -1.233200   -0.368800
C     -1.917600   -0.439800   -0.334800
C     -3.283500   -0.719100   -0.473200
N     -4.203200    0.274100   -0.390300
