28

C      7.009200   -0.003500   -0.158800
C      6.288200    0.973300    0.501800
C      4.935000    0.590600    0.338400
N      3.661000    0.969400    0.652200
C      2.775100    0.050800    0.123000
C      3.520100   -0.935100   -0.545300
C      2.870100   -2.002800   -1.184100
C      1.471700   -2.076500   -1.149700
C      0.697100   -1.115000   -0.495100
C     -0.737500   -1.247000   -0.496300
C     -1.646200   -0.347000    0.118600
C     -3.083100   -0.507600    0.103200
C     -3.771900   -1.485600    0.867000
C     -5.194000   -1.662500    0.860700
C     -6.080400   -0.885000    0.086300
C     -5.404000    0.070500   -0.671500
C     -6.056500    0.939600   -1.510600
S     -4.949100    1.983000   -2.310000
C     -3.594000    1.264900   -1.531900
C     -3.972600    0.258900   -0.672100
C     -0.961100    0.696100    0.748700
C     -1.522600    1.730500    1.457700
N     -0.493000    2.522900    1.903300
C      0.719300    2.004200    1.494900
C      0.465900    0.860400    0.773500
C      1.370500   -0.022900    0.158200
C      4.876600   -0.553100   -0.382400
N      6.152200   -0.933700   -0.698000
