19

C      5.055400   -0.124200    0.412600
C      4.746700   -1.383800   -0.110200
C      3.337600   -1.384900   -0.242800
N      2.197000   -2.048700   -0.610000
C      1.108800   -1.244500   -0.396700
C     -0.294300   -1.065500   -0.458100
C     -0.535900    0.231200    0.027700
N      0.678700    0.823600    0.373800
C      1.601400   -0.099100    0.098500
C      2.925500   -0.179700    0.191100
N      3.906800    0.629400    0.600300
C     -1.784700    0.938100    0.187700
S     -1.831400    2.557400    0.818000
C     -3.539700    2.676700    0.704700
C     -4.062400    1.521800    0.203000
S     -5.774700    1.071900   -0.133700
C     -5.104800   -0.457200   -0.670300
C     -3.713200   -0.586500   -0.590600
C     -3.070300    0.576500   -0.074500
