27

Si    -4.003800   -3.421800   -1.124100
C     -4.886400   -1.793100   -0.851200
C     -4.019700   -0.819700   -0.504400
C     -4.374200    0.579600   -0.217500
C     -5.700900    1.205100   -0.243100
C     -5.728900    2.516100    0.065600
Si    -3.995100    3.159200    0.447000
C     -3.384400    1.451100    0.120400
C     -2.034400    1.018600    0.195000
O     -0.943000    1.785800    0.521300
C      0.132600    0.944800    0.462300
C      1.507100    1.142700    0.689000
C      2.175200   -0.052900    0.487700
S      1.129300   -1.361900    0.047900
C     -0.243300   -0.311100    0.114900
C     -1.638300   -0.287300   -0.063800
C     -2.594900   -1.275000   -0.425300
C     -2.392200   -2.574400   -0.709200
C      3.601300   -0.314300    0.605100
C      4.167700   -1.186000    1.567500
C      5.574000   -1.424400    1.698500
C      6.555600   -0.818200    0.885300
C      5.993100    0.037200   -0.062700
C      6.755400    0.732300   -0.968500
S      5.772600    1.683900   -2.008100
C      4.323400    1.159300   -1.243500
C      4.577500    0.289100   -0.207800
