18

C      4.991200    0.170800    0.300800
C      4.045900    1.177400    0.174700
C      2.724800    0.739100    0.113700
N      1.552600    1.446700   -0.008900
C      0.470800    0.598300   -0.028300
C     -0.894700    0.870300   -0.136600
C     -1.735100   -0.240700   -0.123400
C     -3.180100   -0.116600   -0.227800
C     -4.165000   -1.133100   -0.230200
N     -5.407600   -0.653800   -0.343300
N     -5.224500    0.672400   -0.413800
C     -3.912000    1.047700   -0.349400
N     -1.285500   -1.515400   -0.013700
C      0.045100   -1.756300    0.090300
C      0.962300   -0.700500    0.085700
C      2.386700   -0.613000    0.175500
C      3.419200   -1.551200    0.303200
N      4.713000   -1.149600    0.364600
