26

C     -6.784300   -0.325400   -0.938000
C     -6.155200    0.769500   -0.365500
C     -4.770600    0.660600   -0.254700
N     -3.842300    1.538100    0.253300
C     -2.574400    1.013100    0.160800
C     -1.341000    1.545400    0.546600
C     -0.214400    0.751800    0.315200
C      1.157600    1.179400    0.669300
C      1.497700    2.399700    1.265600
N      2.743500    2.822400    1.602800
C      3.793700    2.008400    1.353200
C      3.594900    0.758200    0.759700
C      2.292300    0.377300    0.434900
N      2.382200   -0.879300   -0.128000
C      3.680500   -1.315600   -0.176600
C      4.221400   -2.505700   -0.656900
C      5.599400   -2.608300   -0.544000
N      6.407200   -1.661000   -0.018100
C      5.854300   -0.511300    0.442400
C      4.469800   -0.307900    0.374700
N     -0.314600   -0.482200   -0.259500
C     -1.523100   -0.982300   -0.627800
C     -2.689800   -0.243000   -0.425700
C     -4.076700   -0.468600   -0.689400
C     -4.808000   -1.521400   -1.254500
N     -6.156100   -1.439400   -1.373400
