25

C     -6.865100   -0.302200    0.053700
C     -5.857100   -1.136900    0.511800
C     -4.562400   -0.673900    0.286600
N     -3.346100   -1.232000    0.601300
C     -2.316300   -0.420300    0.187200
C     -0.934000   -0.581600    0.294200
C     -0.158600    0.448000   -0.239400
C      1.309500    0.411900   -0.197400
N      2.196400    1.288100   -0.648000
C      3.407100    0.733900   -0.335400
C      4.714500    1.177300   -0.550000
C      5.746800    0.364400   -0.103100
O      7.090200    0.579100   -0.195900
C      7.630400   -0.524400    0.397400
N      6.766700   -1.407900    0.852200
C      5.553300   -0.852400    0.538900
C      4.245400   -1.294700    0.753000
C      3.213700   -0.480700    0.305400
O      1.872600   -0.697800    0.399600
N     -0.690500    1.549100   -0.831200
C     -2.036200    1.684900   -0.924200
C     -2.888000    0.699000   -0.414900
C     -4.307800    0.539700   -0.352600
C     -5.398800    1.309000   -0.777400
N     -6.668300    0.879900   -0.569700
