25

C     -6.876700   -0.515300    0.035300
C     -5.985600   -0.351500   -1.014300
C     -4.644500   -0.286200   -0.642500
N     -3.512000   -0.130900   -1.406200
C     -2.389100   -0.121000   -0.613500
C     -1.044100    0.010600   -0.952900
C     -0.156600   -0.022700    0.116400
C      1.282800    0.104400   -0.098800
N      1.916800    0.259000   -1.253700
C      3.243400    0.327400   -0.927200
N      4.291600    0.483900   -1.772200
C      5.501600    0.517300   -1.162400
N      6.730400    0.663100   -1.748100
C      7.585000    0.633500   -0.745300
N      6.960200    0.474600    0.464500
C      5.623200    0.397900    0.219500
N      4.609600    0.241000    1.095500
C      3.426600    0.213300    0.446900
N      2.175000    0.073000    0.953700
N     -0.522300   -0.170800    1.416800
C     -1.840200   -0.296800    1.717200
C     -2.810300   -0.275100    0.706700
C     -4.236800   -0.379600    0.688600
C     -5.218800   -0.544300    1.674200
N     -6.530500   -0.610600    1.337800
