22

C      3.182500    1.313900    0.294600
C      4.582500    1.402100    0.294900
C      5.271800    0.233800   -0.021700
N      6.598400   -0.075900   -0.125300
N      6.789500   -1.361300   -0.463800
N      5.592100   -1.921000   -0.589100
C      4.646100   -0.966200   -0.325000
C      3.245900   -1.034700   -0.320000
C      2.498200    0.118800   -0.006400
C      1.026300    0.074000    0.004000
C      0.308000   -0.370800   -1.113100
C     -1.097300   -0.429200   -1.105900
C     -1.827300   -0.011500    0.022400
C     -1.109200    0.448200    1.142200
C      0.297100    0.473900    1.131000
C     -1.838700    0.885300    2.387000
C     -3.261400    1.319500    2.065100
C     -3.954600    0.237400    1.252200
N     -3.214800   -0.051000    0.030600
C     -3.952800   -0.405600   -1.174900
C     -3.199700   -1.444000   -1.991400
C     -1.815300   -0.916100   -2.338800
