24

C     -2.934300    3.088400    0.705500
C     -3.752900    2.008500    0.440400
C     -2.924200    0.887700    0.140200
C     -1.627000    1.353900    0.240600
N     -1.632900    2.672300    0.579200
C     -0.435300    0.414800   -0.018300
N      0.899000    0.676200    0.029000
C      1.605200   -0.466900   -0.275100
C      0.663600   -1.458900   -0.515800
C     -0.640900   -0.906800   -0.354600
C     -1.989000   -1.362400   -0.451600
C     -2.236600   -2.705600   -0.792800
C     -3.545700   -3.181700   -0.895600
C     -4.626500   -2.332500   -0.661400
C     -4.414300   -0.994500   -0.321000
C     -3.107200   -0.483500   -0.209200
C      3.040400   -0.520800   -0.310300
S      3.896900   -1.997800   -0.702400
C      5.461600   -1.282000   -0.541800
C      5.283100    0.007100   -0.208100
O      6.269700    0.917800    0.011000
C      5.501000    2.025400    0.306900
C      4.120200    1.792000    0.267500
C      3.980400    0.431100   -0.079900
