27

C     -4.408800    3.376700    0.232400
C     -4.987400    2.121100    0.241900
C     -3.943600    1.151200    0.188900
C     -2.775300    1.882700    0.149700
N     -3.047300    3.214300    0.175500
C     -1.404000    1.191600    0.086500
O     -0.203700    1.814400    0.044800
C      0.699800    0.794500   -0.003100
C      2.105400    0.774400   -0.060200
C      2.559100   -0.536300   -0.093200
S      1.245500   -1.682400   -0.052700
C      0.076900   -0.409200    0.008700
C     -1.328700   -0.187200    0.068100
C     -2.542500   -0.930100    0.109000
C     -2.500600   -2.337100    0.091700
C     -3.681400   -3.082400    0.131200
C     -4.919700   -2.444200    0.188400
C     -4.996700   -1.050100    0.207000
C     -3.826300   -0.270000    0.168300
C      3.944200   -0.966600   -0.154000
S      4.428800   -2.655600   -0.192400
C      6.117900   -2.308600   -0.256900
C      6.254900   -0.973100   -0.247700
O      7.433400   -0.294600   -0.287900
C      6.956300    0.999800   -0.254200
C      5.560200    1.093600   -0.196600
C      5.092500   -0.239000   -0.192400
