24

C      1.520700   -3.080700    0.738200
C      0.429400   -2.152400    0.298400
C      0.896900   -0.898300    0.197100
C      2.346000   -0.927100    0.442700
C      2.713000   -2.174200    0.784500
C      3.202800    0.247700    0.196100
C      4.570600    0.270800    0.474300
C      5.283900    1.416600    0.166100
N      4.736500    2.517300   -0.388700
C      3.405100    2.476400   -0.645400
C      2.587200    1.382300   -0.380700
C      1.126100    1.349900   -0.618400
S      0.291800    2.565700   -1.453900
C     -1.233700    1.823100   -1.178000
C     -2.464500    2.299200   -1.665000
C     -3.638400    1.648500   -1.299800
C     -3.614900    0.592400   -0.395300
C     -4.820100    0.014700    0.036100
C     -4.828600   -0.984200    1.007700
C     -3.632900   -1.400200    1.577400
C     -2.424800   -0.845700    1.147100
C     -2.376300    0.121900    0.118300
C     -1.132900    0.681700   -0.368500
C      0.270500    0.316500   -0.246600
