28

C      5.614800   -0.322700   -1.850000
C      5.574300   -0.550400   -0.489000
C      4.224900   -0.443100   -0.148500
C      3.439100   -0.159600   -1.245600
C      2.044400    0.002200   -1.191100
C      1.365700   -0.118000    0.047900
C     -0.073900    0.037400    0.146400
C     -1.012100   -0.851500   -0.436400
C     -2.454000   -0.692200   -0.357400
C     -3.353200   -1.631500   -0.965500
N     -3.009700   -2.731100   -1.663000
S     -4.420200   -3.462200   -2.136600
N     -5.542600   -2.422900   -1.496400
C     -4.854300   -1.454000   -0.872700
C     -5.432800   -0.359100   -0.187300
C     -4.541700    0.550900    0.398400
C     -3.121000    0.395900    0.319500
C     -2.152200    1.265000    0.876000
C     -2.387500    2.419000    1.585600
N     -1.162100    2.948500    1.928200
C     -0.148000    2.157000    1.438000
C     -0.730800    1.093000    0.791300
C      2.164500   -0.422400    1.191600
N      1.743100   -0.606100    2.463000
S      3.094400   -0.939800    3.390300
N      4.298000   -0.868600    2.227100
C      3.610400   -0.590200    1.130000
N      4.330300   -0.089900   -2.297500
