31

Si    -3.593100   -3.959500   -0.955800
C     -2.013200   -2.976800   -0.847100
C     -2.254200   -1.703400   -0.480700
C     -1.292100   -0.668700   -0.296800
C      0.080100   -0.543000   -0.398600
Si     1.630300   -1.472600   -0.803100
C      2.620200    0.151500   -0.446900
C      1.801300    1.173000   -0.105500
C      0.439800    0.760800   -0.081300
O     -0.694200    1.466900    0.219800
C     -1.727100    0.588600    0.085100
C     -3.092700    0.978100    0.324600
C     -3.570900    2.227200    0.708400
C     -2.889800    3.390500    0.955300
O     -3.772100    4.377500    1.307800
C     -5.029000    3.836000    1.285400
C     -4.949700    2.518800    0.922500
C     -6.003000    1.624200    0.784900
C     -5.531600    0.342600    0.393200
C     -4.142900    0.007800    0.166400
C     -3.704900   -1.373600   -0.248900
C     -4.532300   -2.422500   -0.449600
C      4.055500    0.202000   -0.619800
C      4.688700    0.772200   -1.749500
C      6.109000    0.820500   -1.928000
C      7.039400    0.313000   -0.995500
C      6.410600   -0.232000    0.124400
C      7.114100   -0.772200    1.172200
S      6.058200   -1.338500    2.404000
C      4.656900   -0.853600    1.531300
C      4.980200   -0.289300    0.318500
