22

C      5.696600    0.898300    0.475000
C      5.217500   -0.298600   -0.012500
C      3.808600   -0.278100   -0.029000
C      3.204600    0.873500    0.421500
C      1.802500    1.036800    0.462300
C      0.889800    0.024600    0.041000
C     -0.575300    0.240000    0.101600
C     -1.552500   -0.676600   -0.282400
C     -2.916800   -0.345800   -0.173900
C     -3.949700   -1.212700   -0.539000
N     -5.268200   -0.918200   -0.444200
C     -5.584800    0.300900    0.038300
C     -4.646300    1.239900    0.430600
C     -3.288100    0.907900    0.321500
C     -2.256000    1.765300    0.682800
N     -0.939800    1.459900    0.583500
C      1.522000   -1.167700   -0.425200
N      0.932600   -2.293800   -0.886400
S      2.130300   -3.378700   -1.299800
N      3.487600   -2.486900   -0.919000
C      2.972300   -1.349900   -0.472800
S      4.436600    1.990600    0.890300
