31

C     -2.785400   -2.697700   -1.242400
C     -3.956200   -1.835700   -0.870100
C     -3.525900   -0.722200   -0.254800
C     -4.272000    0.407900    0.299200
C     -3.522300    1.378400    0.881800
C     -2.057800    1.328900    0.971100
C     -1.325800    0.311200    0.462700
C      0.125700    0.358800    0.606500
C      0.832000    0.097600    1.806200
C      2.264600    0.144700    1.920100
C      3.135600    0.453000    0.845300
C      4.573200    0.481000    0.944700
S      5.424600    1.565600    1.993100
C      6.989800    0.965700    1.520600
C      6.793000   -0.018800    0.620300
C      7.503700   -0.949700   -0.176400
C      6.544600   -1.697200   -0.894500
N      5.245900   -1.290000   -0.594700
C      5.480200   -0.289300    0.305100
C      2.424200    0.713900   -0.333500
C      2.921300    1.081200   -1.561700
N      1.846200    1.245800   -2.408800
C      0.669100    0.993800   -1.739400
C      0.996200    0.667500   -0.445500
C     -2.064700   -0.767900   -0.170100
C     -1.620100   -1.901000   -0.734800
C     -5.700100    0.567100    0.253500
C     -6.560500    1.288400    1.082300
C     -7.883500    1.121500    0.608800
C     -7.784800    0.304500   -0.485300
O     -6.494000   -0.035600   -0.705700
