28

C      3.404500   -2.298500    1.757100
C      4.325900   -1.458200    0.919400
C      3.617000   -0.516500    0.277000
C      4.050300    0.526000   -0.647900
C      3.076000    1.330300   -1.142300
C      1.656800    1.177600   -0.799600
C      1.207400    0.227000    0.053000
C     -0.234700    0.152700    0.330400
C     -1.040500   -0.751700   -0.368900
C     -2.410500   -0.829100   -0.100000
C     -2.996000   -0.009100    0.874700
C     -2.182200    0.894600    1.572100
C     -0.811900    0.974200    1.304200
C     -4.434100   -0.092500    1.134700
S     -5.027000   -0.305800    2.752500
C     -6.680700   -0.326000    2.253200
C     -6.743900   -0.178600    0.902400
C     -7.775300   -0.112600   -0.065900
C     -7.224300    0.054200   -1.290000
C     -5.694400    0.111400   -1.209900
C     -5.491000   -0.051400    0.259300
C      2.204100   -0.663200    0.624800
C      2.061800   -1.685200    1.482200
C      5.407200    0.784300   -1.023700
C      6.473400    1.140800   -0.213800
C      7.693100    1.299100   -0.933000
C      7.531700    1.049900   -2.275900
S      5.922300    0.626200   -2.662100
