30

C     -2.563400    2.405400   -1.801100
C     -1.289400    1.812100   -1.283200
C     -1.570500    0.771300   -0.483400
C     -0.665400   -0.119000    0.230800
C     -1.249300   -1.101900    0.956500
C     -2.701900   -1.284500    1.033800
C     -3.602200   -0.489500    0.397600
C     -5.054800   -0.769400    0.571700
N     -5.409200   -1.990100    0.995900
C     -6.718200   -2.177000    1.139800
N     -7.668000   -1.276300    0.910200
C     -7.200900   -0.101500    0.500000
N     -5.922400    0.213000    0.312000
C     -3.025400    0.591300   -0.407500
C     -3.607400    1.529000   -1.173900
C      0.762700   -0.023300    0.235900
S      1.718400   -1.247400   -0.518000
C      3.219100   -0.479700   -0.142400
C      4.479300   -1.107400   -0.561100
C      5.602400   -0.362900   -0.912100
C      6.763700   -1.029900   -1.297900
C      6.774800   -2.418100   -1.323900
C      5.618000   -3.084900   -0.961700
N      4.479100   -2.464600   -0.584100
C      2.988900    0.702800    0.530100
N      3.983000    1.540100    0.957200
C      3.474700    2.622100    1.604700
C      2.115700    2.871000    1.811900
N      1.104900    2.066200    1.396900
C      1.581400    0.962500    0.747000
