31

C     -0.814500   -0.894600   -3.134900
C     -2.073400   -0.678200   -2.347400
C     -1.770800   -0.144600   -1.153400
C     -2.645600    0.269100   -0.064300
C     -2.038500    0.816100    1.015900
C     -0.584200    0.989300    1.115300
C      0.279600    0.610500    0.141000
C      1.680000    0.802600    0.376300
S      2.739700   -0.560800    0.413900
C      4.146100    0.388400    0.711900
C      5.440100   -0.245600    0.817400
C      5.747700   -1.429200    1.468400
C      7.126000   -1.778800    1.358000
C      7.831500   -0.855700    0.619700
S      6.835500    0.416700    0.063100
C      3.811900    1.723000    0.815000
N      4.709400    2.719000    1.082100
C      4.106600    3.936300    1.118100
C      2.741600    4.162500    0.923100
N      1.818900    3.197100    0.672700
C      2.396500    1.958500    0.621000
C     -0.320800    0.028800   -1.056000
C      0.246400   -0.393900   -2.197700
C     -4.062900    0.102000   -0.036800
S     -5.137200    1.472700   -0.088100
C     -6.559700    0.494900   -0.058600
C     -6.202000   -0.817300   -0.009900
C     -6.884000   -2.057400    0.035000
C     -5.977100   -3.061300    0.069400
C     -4.543100   -2.519000    0.046300
C     -4.808500   -1.051600   -0.003900
