30

C     -1.392400    0.255100   -3.060500
C     -2.449400   -0.013700   -2.028700
C     -1.869500   -0.240400   -0.839500
C     -2.466200   -0.561100    0.451000
C     -1.603600   -0.762500    1.476900
C     -0.146100   -0.675500    1.327100
C      0.461000   -0.369600    0.154200
C      1.886300   -0.306900    0.140100
S      2.707300    1.202800   -0.080100
C      4.298400    0.506600    0.027200
C      5.481100    1.328600   -0.092000
C      5.570300    2.700000   -0.284700
N      6.844600    3.234400   -0.364800
C      7.720300    2.266300   -0.232000
S      7.081900    0.695600   -0.009000
C      4.179000   -0.848900    0.227900
C      5.084300   -2.026900    0.402900
C      4.064800   -3.156500    0.563100
C      2.799800   -2.688000    0.490300
C      2.830600   -1.283600    0.288500
C     -0.417200   -0.145000   -0.987300
C     -0.123500    0.138100   -2.266200
C     -3.866700   -0.632100    0.717600
S     -4.632500   -2.143500    1.127500
C     -6.201300   -1.433000    1.261200
C     -6.117500   -0.102600    0.992700
C     -7.023800    0.984400    0.939900
C     -6.348200    2.109500    0.611200
C     -4.854900    1.825300    0.410300
C     -4.818300    0.358700    0.683000
