27

C     -2.129200    2.401700   -2.279400
C     -3.043700    1.537000   -1.644200
C     -2.299100    0.715200   -0.756300
C     -2.454300   -0.305700    0.118200
S     -0.868600   -0.711200    0.710700
C     -0.069700    0.524700   -0.210100
C      1.339600    0.760000   -0.152500
C      2.069500    1.923900   -0.282200
C      3.440300    1.591000   -0.147700
C      3.535100    0.229500    0.085400
N      2.242800   -0.251700    0.081700
C      4.707300   -0.621300    0.292700
C      5.924100   -0.336100   -0.332700
C      7.027400   -1.163300   -0.126100
C      6.881500   -2.258900    0.707600
N      5.729700   -2.571200    1.336600
C      4.677100   -1.744400    1.118700
C     -1.008100    1.164700   -0.943800
N     -0.824900    2.172300   -1.849700
C     -3.644900   -0.978600    0.544100
S     -3.726400   -2.707300    0.788000
C     -5.400000   -2.686700    1.236200
C     -5.815600   -1.409200    1.187600
O     -7.066000   -0.957200    1.475600
C     -6.876300    0.396600    1.267200
C     -5.577000    0.739700    0.871800
C     -4.875400   -0.480100    0.814200
