32

C     -2.195100    1.807800    3.217700
C     -3.113400    1.485100    2.212900
C     -2.486000    1.007300    1.031700
C     -2.947100    0.595200   -0.175900
S     -1.577300    0.202500   -1.150300
C     -0.455100    0.570900    0.097700
C      0.967400    0.434200   -0.086900
C      1.754700    1.285000   -0.893700
C      3.174600    1.134800   -1.059600
C      3.967200    0.115000   -0.455300
C      5.404800   -0.017200   -0.667200
C      6.020600   -1.234600   -0.955800
C      7.397200   -1.270400   -1.169200
C      8.126400   -0.091500   -1.099300
C      7.443200    1.079900   -0.826500
N      6.109500    1.143200   -0.619700
C      3.162400   -0.708800    0.350300
C      3.555500   -1.758900    1.147500
N      2.427600   -2.264600    1.757600
C      1.317400   -1.546100    1.376700
C      1.744100   -0.557100    0.522900
C     -1.102100    1.009600    1.219600
S     -0.498000    1.573500    2.827000
C     -4.284900    0.457200   -0.706900
C     -4.781700    1.121100   -1.857300
C     -6.127100    0.976000   -2.355600
C     -7.114300    0.154200   -1.762100
C     -6.598800   -0.486900   -0.643800
C     -7.252400   -1.366900    0.175700
O     -6.399500   -1.793500    1.157400
C     -5.193300   -1.177900    0.954200
C     -5.271300   -0.351700   -0.138100
