28

C      2.295100   -3.227600    1.978800
C      3.405500   -2.534100    1.490700
C      2.881400   -1.425000    0.790900
C      3.289900   -0.342500    0.075600
S      1.834900    0.488000   -0.411200
C      0.753200   -0.629600    0.350500
C     -0.701400   -0.491300    0.312000
C     -1.581200   -1.377600    0.916700
C     -2.959100   -1.150300    0.817900
C     -3.472300   -0.046600    0.121300
C     -2.502400    0.776600   -0.445700
N     -1.157700    0.586200   -0.369700
C     -4.929600    0.198000    0.014000
C     -5.495500    1.278900   -0.666000
C     -6.883700    1.420100   -0.708700
C     -7.685500    0.484000   -0.074500
C     -7.062000   -0.559700    0.579500
N     -5.720700   -0.718000    0.634900
C      1.517500   -1.574400    0.935500
O      1.086400   -2.654400    1.650000
C      4.613700    0.127800   -0.275500
S      6.039600   -0.729800    0.229700
C      7.121200    0.366100   -0.517800
C      6.428600    1.361400   -1.137900
S      7.033900    2.776800   -2.075500
C      5.340000    3.173200   -2.272600
C      4.425100    2.299000   -1.674500
C      5.045400    1.208200   -0.990100
