24

C      2.317800   -0.206300    3.159700
C      3.400500    0.063100    2.293400
C      2.871800    0.226200    0.979300
C      3.243200    0.468800   -0.301300
S      1.774300    0.488400   -1.248100
C      0.735000    0.147800    0.095100
C     -0.719300   -0.003600    0.000900
C     -1.399300   -0.146900   -1.208800
C     -2.788000   -0.304100   -1.194800
C     -3.477200   -0.307000    0.016500
C     -2.721700   -0.156600    1.175600
N     -1.372700   -0.012300    1.195200
C     -4.921300   -0.474300    0.057400
C     -5.700600   -1.544300   -0.338900
N     -7.065900   -1.382200   -0.190000
C     -7.308400   -0.189300    0.304300
S     -5.937500    0.784900    0.631000
C      1.519700    0.053100    1.192900
N      1.110500   -0.205400    2.473600
C      4.536400    0.671500   -0.899200
C      4.840600    1.144000   -2.166200
N      6.183200    1.219000   -2.496300
C      6.893300    0.802900   -1.471600
S      6.012700    0.314700   -0.087600
