33

C     -1.538900   -2.327900   -2.881700
C     -0.373100   -1.844600   -2.276400
C     -0.818900   -1.038800   -1.210800
C     -0.339000   -0.275400   -0.199900
S     -1.714700    0.338000    0.677700
C     -2.871500   -0.425000   -0.357000
C     -4.301400   -0.362100   -0.173200
C     -5.160700   -1.493800   -0.195200
C     -6.588100   -1.437800   -0.002800
C     -7.313700   -0.247500    0.228200
C     -6.457600    0.845000    0.229300
C     -6.807600    2.157200    0.400900
O     -5.690000    2.940200    0.311900
C     -4.622600    2.113600    0.083000
C     -5.041200    0.806400    0.041400
C     -2.189000   -1.125000   -1.286600
O     -2.707800   -1.894500   -2.285200
C      1.009300    0.045200    0.163900
S      2.178900    0.509900   -1.020100
C      3.424800    0.724900    0.141100
C      4.743200    1.137900   -0.199100
S      5.175400    2.784400   -0.471700
C      6.826100    2.399000   -0.787800
C      6.969400    1.058600   -0.674400
C      8.073100    0.183400   -0.819000
C      7.725700   -1.155500   -0.595400
S      6.040300   -1.469000   -0.195600
C      5.832100    0.320700   -0.345100
C      2.970300    0.437200    1.398600
S      3.790900    0.463300    3.009400
C      2.238900   -0.057900    3.642200
C      1.213200   -0.230100    2.705800
C      1.622100    0.069200    1.376000
