32

C      2.764200   -2.316400   -2.468100
C      1.473900   -1.991000   -2.032400
C      1.638500   -0.861100   -1.209700
C      0.912900   -0.002300   -0.452200
S      2.040300    1.139500    0.242600
C      3.422200    0.405400   -0.491000
C      4.767000    0.895600   -0.312500
C      5.169900    2.213700   -0.645200
C      6.501100    2.713200   -0.472400
C      7.565400    1.951900    0.054300
C      7.165300    0.658200    0.389500
C      8.032300   -0.258000    0.931700
S      7.241400   -1.748600    1.252100
C      5.735000   -1.161800    0.664100
C      5.827200    0.137400    0.218700
C      2.994800   -0.636700   -1.229700
O      3.752700   -1.481100   -1.984000
C     -0.521700    0.100200   -0.198700
C     -1.448500   -0.084000   -1.225800
C     -2.816900    0.007600   -0.960200
C     -3.247700    0.271300    0.337800
N     -2.364600    0.471500    1.347700
C     -1.041500    0.375200    1.062300
C     -4.654200    0.408600    0.696800
C     -5.159400    1.445600    1.535500
C     -6.543300    1.621000    1.892000
C     -7.583400    0.772400    1.458800
C     -7.078500   -0.246000    0.662800
C     -7.816900   -1.259500    0.109500
N     -6.934100   -2.072100   -0.566700
C     -5.648000   -1.584100   -0.449800
C     -5.706900   -0.430200    0.297200
