31

C     -1.951000   -2.941400   -1.794300
C     -0.715200   -2.370900   -1.464000
C     -1.024400   -1.293500   -0.612500
C     -0.418600   -0.302800    0.088100
S     -1.684000    0.600300    0.889800
C     -2.955200   -0.362100    0.225600
C     -4.352700   -0.165500    0.516900
C     -5.140400   -1.109200    1.221400
C     -6.527000   -0.924000    1.528500
C     -7.269800    0.217300    1.159300
C     -6.495100    1.138300    0.453400
C     -7.011300    2.318800   -0.020500
S     -5.820900    3.222600   -0.866700
C     -4.613300    2.027400   -0.597300
C     -5.094800    0.967500    0.137000
C     -2.396500   -1.325000   -0.531400
O     -3.038400   -2.308900   -1.221500
C      0.989200    0.042500    0.267000
C      1.444300    1.363500    0.265300
C      2.805000    1.635500    0.424200
C      3.690400    0.573700    0.578300
N      3.281400   -0.715400    0.586400
C      1.954700   -0.947300    0.432200
C      5.120900    0.770500    0.751800
S      5.773400    1.906500    1.878000
C      7.402800    1.507300    1.490600
C      7.379900    0.552700    0.534600
C      8.399000   -0.137600   -0.163500
C      7.884800   -1.048600   -1.092400
S      6.132500   -1.147000   -1.202000
C      6.129300    0.115400    0.094400
