25

Si    -1.162800   -2.980400   -2.717900
C     -2.371400   -1.979400   -1.713900
C     -1.760700   -1.077600   -0.918000
C     -2.371200   -0.133800   -0.006100
C     -3.772700    0.072300    0.324200
C     -4.976200   -0.556600   -0.099800
C     -6.228300   -0.153400    0.381400
C     -6.324800    0.880100    1.294900
C     -5.173500    1.522600    1.742400
C     -3.914700    1.110100    1.254000
S     -2.404100    1.781000    1.700800
C     -1.529500    0.727600    0.691300
C     -0.050000    0.761500    0.600900
C      0.741500    1.660300    1.335700
C      2.134500    1.651400    1.223900
C      2.771400    0.740200    0.380800
C      1.991600   -0.152700   -0.365400
C      0.587500   -0.157800   -0.266400
C     -0.268700   -1.092700   -1.045200
C      0.205200   -2.007400   -1.920000
C      4.225200    0.743900    0.271000
C      4.995800    1.752000   -0.188400
C      6.427600    1.493300   -0.179800
C      6.790500    0.286000    0.290400
Si     5.289500   -0.726300    0.808100
