32

C      3.098900    2.771400    1.177200
C      1.737000    2.440500    1.136100
C      1.646700    1.377500    0.216700
C      0.735200    0.542200   -0.337700
S      1.591800   -0.499500   -1.450200
C      3.128800    0.193900   -1.083200
C      4.366000   -0.265700   -1.648600
C      4.815900    0.045200   -2.931600
N      5.985500   -0.365300   -3.527600
C      6.863600   -1.175700   -2.855400
C      6.537700   -1.576900   -1.533000
N      7.273400   -2.359700   -0.725800
S      6.417500   -2.493600    0.679700
N      5.077100   -1.585000    0.333400
C      5.247500   -1.106000   -0.913900
C      2.945100    1.187400   -0.192100
O      3.895500    2.000700    0.348800
C     -0.694500    0.384800   -0.109600
C     -1.191600    0.204900    1.189400
C     -2.562100    0.042200    1.390500
C     -3.422200    0.078500    0.286500
N     -2.967600    0.287500   -0.980300
C     -1.625300    0.416100   -1.152400
C     -4.862400   -0.059700    0.421800
C     -5.792100    0.825700   -0.163200
N     -7.164200    0.799200   -0.040500
C     -7.785000   -0.179500    0.684500
C     -6.981600   -1.166900    1.302100
N     -7.410400   -2.212700    2.044700
S     -6.058800   -3.092300    2.455100
N     -4.866400   -2.125200    1.820700
C     -5.479700   -1.101400    1.167800
