31

C      3.139400   -2.642300    2.034400
C      1.903700   -2.087200    1.640700
C      2.176400   -1.133400    0.625000
C      1.552500   -0.256800   -0.193500
S      2.783500    0.489300   -1.172500
C      4.086300   -0.396500   -0.436900
C      5.485000   -0.238900   -0.815400
N      5.768900    0.639100   -1.779800
C      7.061000    0.733200   -2.074300
N      8.045400    0.044700   -1.502100
C      7.638200   -0.797900   -0.556800
N      6.381400   -0.990500   -0.163400
C      3.545900   -1.212800    0.498200
N      4.197100   -2.095700    1.314300
C      0.160300    0.104500   -0.354300
C     -0.549400    0.053400   -1.581500
C     -1.938200    0.396800   -1.724900
C     -2.760000    0.824500   -0.654300
C     -4.153500    1.169700   -0.783400
S     -4.674100    2.573900   -1.633300
C     -6.341000    2.257500   -1.327000
C     -6.422800    1.110100   -0.616900
C     -7.508900    0.365100   -0.098600
C     -7.090300   -0.788600    0.574700
S     -5.354600   -1.070900    0.637000
C     -5.224700    0.470300   -0.297400
C     -2.048300    0.882600    0.550000
C     -2.506100    1.287700    1.781100
N     -1.449700    1.198600    2.660700
C     -0.320400    0.756100    2.007300
C     -0.662500    0.539900    0.693300
