27

Si    -1.829500    3.840800   -1.126700
C     -0.420200    2.695800   -0.746300
C     -0.864000    1.464200   -0.431500
C     -0.074800    0.341900   -0.087100
C      1.305200    0.170100    0.026400
O      2.442900    0.892700   -0.116100
C      3.476300    0.019700    0.172100
C      2.981000   -1.239000    0.491900
C      1.584800   -1.094300    0.385100
N      0.393900   -1.767500    0.511500
C     -0.638400   -0.894300    0.223200
C     -2.088700   -1.130300    0.217700
C     -2.783600   -2.324500    0.510200
C     -2.243200   -3.538200    0.867200
S     -3.438600   -4.748300    1.139900
C     -4.713700   -3.664400    0.782900
C     -4.231400   -2.418400    0.466100
C     -5.096200   -1.377700    0.140500
C     -4.408200   -0.182800   -0.152500
C     -2.977300   -0.036000   -0.123700
C     -2.344300    1.290000   -0.455200
C     -3.006500    2.419100   -0.795300
C      4.849200    0.462200    0.117500
C      5.281900    1.734400   -0.208900
C      6.701400    1.860300   -0.174900
C      7.311500    0.678200    0.177200
S      6.176200   -0.567700    0.462500
