31

C      3.640600    2.818600   -1.709200
C      4.516700    1.959100   -1.038400
C      3.854300    0.862800   -0.417200
C      4.271700   -0.196700    0.328500
S      2.853300   -1.109100    0.738400
C      1.790200   -0.056700   -0.101300
C      0.382600   -0.262500   -0.171000
S     -0.669300   -0.039900    1.172600
C     -2.081800   -0.445200    0.267800
C     -3.385100   -0.421200    0.894900
C     -3.764300   -1.208400    2.011400
C     -5.074200   -1.179400    2.609200
C     -6.137500   -0.363300    2.158100
C     -5.739600    0.401100    1.069200
C     -6.516800    1.309500    0.399100
N     -5.728800    1.854700   -0.592700
C     -4.464800    1.301900   -0.558800
C     -4.446000    0.382800    0.463200
C     -1.686800   -0.747900   -0.993900
C     -2.372700   -1.176300   -2.161100
C     -1.514700   -1.375900   -3.247900
S      0.192400   -1.075500   -2.958100
C     -0.322400   -0.658200   -1.275100
C      2.484500    0.972600   -0.672600
S      1.940000    2.392500   -1.654100
C      5.599200   -0.617900    0.779900
N      5.686400   -1.723400    1.523600
C      6.922800   -2.040500    1.893400
N      8.027600   -1.364600    1.589500
C      7.811500   -0.283200    0.845500
N      6.630600    0.144900    0.408700
