27

C     -1.811800   -2.833000    0.390900
C     -0.566800   -2.171500    0.382700
C     -0.792900   -0.835700   -0.055800
C     -0.143100    0.327300   -0.314400
S     -1.361500    1.469100   -0.837900
C     -2.668900    0.351400   -0.674400
C     -4.036100    0.676900   -0.925800
S     -4.568000    1.413300   -2.415700
C     -6.236400    1.441800   -1.943000
C     -6.316200    0.913800   -0.708900
O     -7.446500    0.756800    0.031300
C     -6.900600    0.198500    1.173000
C     -5.511700    0.022600    1.118500
C     -5.132100    0.499300   -0.150700
C     -2.159500   -0.827100   -0.254000
N     -2.839000   -1.991300   -0.020400
C      1.253300    0.687100   -0.229200
C      1.804200    1.956300   -0.251600
C      3.227400    1.948400   -0.153800
C      3.745100    0.672300   -0.052300
S      2.490700   -0.493800   -0.093000
C      5.148700    0.258000    0.048500
C      5.575100   -0.755300    0.913800
C      6.925300   -1.098200    0.978200
C      7.818400   -0.411200    0.173700
N      7.456100    0.575400   -0.671700
C      6.135400    0.882900   -0.713500
