33

C     -6.327200   -1.458200   -1.272600
C     -4.966400   -1.092400   -1.181700
C     -4.856200   -0.155400   -0.121500
C     -3.948300    0.604500    0.531900
S     -4.805100    1.465800    1.781900
C     -6.348600    0.793200    1.351000
C     -6.155900   -0.050700    0.318000
N     -7.102200   -0.797300   -0.320300
C     -2.510200    0.724300    0.378300
C     -1.649400   -0.384600    0.468500
C     -0.216900   -0.384300    0.321200
C      0.537800   -1.601100    0.441700
C     -0.074700   -2.865200    0.701600
C      0.633100   -4.060200    0.822400
C      1.999800   -4.043800    0.686700
C      2.639200   -2.832600    0.431900
C      1.954400   -1.587800    0.301000
C      2.648700   -0.358400    0.038400
C      4.069400   -0.304500   -0.105300
C      4.792600    0.871300   -0.360300
C      6.189000    0.891700   -0.496100
C      6.818600    2.100500   -0.746300
N      6.164900    3.272100   -0.868600
C      4.819000    3.225100   -0.733400
C      4.085700    2.060000   -0.480500
C      2.686200    2.034800   -0.343600
C      1.924700    0.856000   -0.087100
C      0.480200    0.842200    0.050400
C     -0.381800    2.024400   -0.072600
N      0.005700    3.286900   -0.339400
S     -1.329300    4.249400   -0.391000
N     -2.499300    3.135000   -0.080300
C     -1.885200    1.950400    0.091000
