31

C      6.952600    1.998600   -0.182800
C      5.574500    1.697600   -0.141700
C      5.446800    0.280300   -0.082300
C      4.523900   -0.712700   -0.028700
S      5.417500   -2.220200   -0.002500
C      6.968200   -1.451800   -0.059700
C      6.765600   -0.121200   -0.099500
N      7.728500    0.843800   -0.155900
C      3.080000   -0.679200    0.007300
C      2.206100   -1.719600   -0.263200
C      0.877400   -1.291200   -0.120400
C     -0.284300   -2.088900   -0.269500
C     -0.396500   -3.420600   -0.514900
O     -1.726000   -3.734300   -0.431400
C     -2.402000   -2.575300   -0.138700
C     -1.547100   -1.495600   -0.100800
C     -1.858900   -0.137700    0.195800
C     -0.652700    0.578300    0.446200
N     -0.632000    1.853000    0.905100
C     -1.817300    2.458600    1.148500
C     -3.076800    1.927200    0.893200
C     -4.247500    2.728400    1.182600
C     -5.575700    2.356600    0.899400
C     -5.589700    1.139100    0.247400
C     -6.712500    0.559100   -0.282900
N     -6.294600   -0.567000   -0.951000
C     -4.922400   -0.689900   -0.857800
C     -4.456800    0.311400   -0.038200
C     -3.104800    0.606000    0.327700
C      0.661300    0.020200    0.257100
S      2.221800    0.752300    0.444500
