27

C      5.948800    2.291900    0.386200
C      4.569000    2.049800    0.215100
C      4.329600    0.692700    0.564000
C      3.328200   -0.218500    0.651600
S      4.074200   -1.703400    1.209200
C      5.668600   -1.029700    1.293400
C      5.589100    0.257800    0.908900
N      6.616000    1.152800    0.830500
C      1.889700   -0.110000    0.369400
C      0.990800   -1.165900    0.516600
C     -0.367200   -0.942400    0.215400
C     -1.443400   -1.870700    0.294900
C     -1.400700   -3.190400    0.682400
O     -2.657700   -3.748500    0.623800
C     -3.529700   -2.777400    0.192000
C     -2.802800   -1.650000   -0.005800
C     -3.119900   -0.356200   -0.433700
C     -4.331900    0.185000   -0.801000
N     -5.671900   -0.013700   -0.977500
C     -6.214500    1.179300   -1.415700
C     -5.229000    2.148000   -1.522700
C     -4.059700    1.477900   -1.125800
O     -2.725800    1.777100   -0.979200
C     -2.146600    0.603400   -0.540200
C     -0.781700    0.348600   -0.228700
C      0.192500    1.332400   -0.342000
N      1.500600    1.124700   -0.054000
