32

C     -6.499700    0.072700   -1.790400
C     -5.113700    0.235200   -1.576300
C     -4.797200   -0.432600   -0.364700
C     -3.756700   -0.710200    0.453000
S     -4.381000   -1.660600    1.774100
C     -6.012000   -1.637500    1.174300
C     -6.018300   -0.932900    0.025400
N     -7.093000   -0.674400   -0.773700
C     -2.351700   -0.364900    0.387300
C     -1.316900   -1.310300    0.337900
C      0.087500   -0.974800    0.240200
C      1.033200   -2.045400    0.260100
N      0.723200   -3.351600    0.384200
S      2.140200   -4.193500    0.396200
N      3.208900   -2.956400    0.229200
C      2.517900   -1.802700    0.152500
C      3.059200   -0.478500   -0.037200
C      2.088800    0.580600   -0.101800
C      2.609800    1.835700   -0.464800
C      3.973400    2.075800   -0.634100
C      4.898200    1.048900   -0.474500
C      6.268200    1.311000   -0.629000
C      7.191100    0.287100   -0.493400
C      6.704500   -0.967400   -0.211100
N      5.391200   -1.241400   -0.060800
C      4.465900   -0.258700   -0.183500
C      0.648700    0.354200    0.134800
C     -0.439700    1.295900    0.309800
C     -0.280300    2.643900    0.553700
S     -1.765300    3.490500    0.694800
C     -2.666800    2.045400    0.574500
C     -1.855700    0.943700    0.408500
