31

C      6.044800   -0.283900   -1.516100
C      4.636400   -0.219900   -1.439000
C      4.299200   -0.085900   -0.067100
C      3.232900    0.034000    0.755300
S      3.849800    0.124200    2.383400
C      5.511800    0.029200    1.885200
C      5.532900   -0.083300    0.542400
N      6.633500   -0.197100   -0.255300
C      1.812700    0.034300    0.488200
C      1.145600   -0.959000   -0.251300
C     -0.280600   -0.943200   -0.546400
C     -0.815900   -1.952000   -1.410900
N     -0.109300   -2.945200   -1.985300
S     -1.150100   -3.806300   -2.934900
N     -2.552600   -2.976200   -2.667800
C     -2.273500   -1.981100   -1.802600
C     -3.223600   -1.048100   -1.271000
C     -4.608800   -1.154300   -1.687000
C     -5.650900   -0.371100   -1.171000
C     -5.194400    0.450400   -0.150200
C     -6.072500    1.206400    0.588000
S     -5.274900    1.985300    1.887400
C     -3.762100    1.292600    1.456100
C     -3.814800    0.584900    0.275500
C     -2.694400   -0.089700   -0.323400
C     -1.240300    0.039200   -0.079200
C     -0.480300    1.078400    0.543600
C     -0.884900    2.358000    0.842000
O      0.143500    3.076400    1.378100
C      1.250200    2.282700    1.355000
C      0.933600    1.063800    0.810300
