32

C      6.947600   -0.076900   -1.498100
C      5.548100   -0.090300   -1.315100
C      5.304300   -0.232300    0.079100
C      4.297900   -0.329300    0.981900
S      5.050200   -0.517100    2.551300
C      6.665700   -0.453700    1.924000
C      6.582200   -0.299800    0.588700
N      7.623800   -0.211200   -0.287700
C      2.843600   -0.285400    0.842400
C      2.220700    0.433300   -0.164100
C      0.819800    0.430100   -0.254400
C      0.204600    1.132700   -1.282400
C     -1.186200    1.137500   -1.429800
C     -2.075800    0.474100   -0.562800
C     -3.565000    0.510400   -0.783500
C     -4.268300    1.156400   -1.890300
N     -3.714300    1.830700   -2.916300
S     -4.923600    2.368100   -3.902600
N     -6.245100    1.782700   -3.104000
C     -5.785300    1.135500   -2.022300
C     -6.612800    0.490300   -1.085400
C     -5.950600   -0.129600   -0.029500
C     -4.521800   -0.117500    0.105200
C     -3.851100   -0.732400    1.174000
C     -4.439000   -1.390800    2.226500
O     -3.486700   -1.821400    3.092200
C     -2.280100   -1.438600    2.586200
C     -2.435700   -0.785100    1.384800
C     -1.432900   -0.221900    0.535900
C      0.028800   -0.275400    0.668900
C      0.784400   -0.982700    1.623500
N      2.138000   -1.001100    1.736500
