27

C     -5.771200    0.724900    1.912400
C     -4.374200    0.617000    1.738900
C     -4.155500    0.055400    0.454200
C     -3.163900   -0.329200   -0.380500
S     -3.916900   -0.924300   -1.835100
C     -5.530700   -0.639600   -1.255200
C     -5.437000   -0.113700   -0.017700
N     -6.465600    0.261800    0.795500
C     -1.720100   -0.312700   -0.249200
C     -0.892900    0.471600   -1.072600
C      0.519000    0.492700   -0.910600
S      1.646100    1.409100   -1.843800
C      2.952200    0.809500   -0.959000
C      2.629600   -0.081800    0.053000
C      3.732200   -0.587600    0.800600
C      5.095500   -0.233200    0.563700
C      5.452800    0.665900   -0.453400
C      6.646800    1.232800   -0.964800
C      6.269400    2.062800   -1.998300
O      4.918900    2.046300   -2.159700
C      4.433700    1.196800   -1.218900
C      1.210000   -0.240900    0.051000
C      0.394600   -1.070100    0.920300
C      0.827200   -1.883000    1.928700
S     -0.512500   -2.676000    2.662000
C     -1.631200   -1.910100    1.603500
C     -1.017300   -1.050800    0.713100
