28

C      7.013500    2.038500    0.527300
C      5.661900    1.651300    0.404900
C      5.642400    0.252900    0.149900
C      4.781800   -0.772700   -0.068900
S      5.775700   -2.198700   -0.291300
C      7.273600   -1.352700   -0.079400
C      6.983300   -0.057600    0.145000
N      7.872300    0.954200    0.363100
C      3.315400   -0.811100   -0.133200
C      2.572800   -1.972000   -0.330100
C      1.177600   -1.892600   -0.374200
C      0.536700   -0.662600   -0.219000
C      1.360900    0.441400   -0.028900
N      2.716600    0.395300    0.017200
C     -0.919500   -0.560300   -0.271600
S     -1.799000    0.490800    0.812700
C     -3.345900    0.044800    0.184200
C     -4.596600    0.579000    0.694900
C     -4.878500    1.948300    0.603600
C     -6.087600    2.456300    1.084100
C     -7.024100    1.600600    1.661500
C     -6.753200    0.237100    1.761300
C     -5.544900   -0.271900    1.280300
C     -3.158000   -0.854400   -0.804700
N     -4.109200   -1.451500   -1.582900
C     -3.323900   -2.253800   -2.407000
C     -1.950900   -2.113800   -2.112600
C     -1.841400   -1.182700   -1.045200
