27

Si     2.669500   -2.108600   -3.107000
C      3.513000   -1.398600   -1.606500
C      2.630100   -0.796000   -0.789300
C      2.899300   -0.147100    0.439900
C      4.060100    0.097200    1.199000
S      5.772100   -0.165200    1.211500
C      5.895700    0.669300    2.722000
C      4.692600    1.133500    3.214400
C      3.671000    0.784200    2.310300
O      2.318800    0.998300    2.312200
C      1.882500    0.423500    1.164300
C      0.478900    0.438700    0.789800
C     -0.543700    1.044100    1.567900
N     -0.418700    1.687400    2.742300
S     -1.923600    2.202900    3.187200
N     -2.827300    1.631500    1.925700
C     -1.984500    1.005600    1.084700
C     -2.320900    0.363800   -0.145500
C     -1.250000   -0.213800   -0.869900
C      0.101900   -0.192400   -0.441200
C      1.203500   -0.827100   -1.252400
C      1.039800   -1.465400   -2.432000
C     -3.692700    0.315300   -0.642100
C     -4.102800    0.655800   -1.883600
C     -5.517300    0.455200   -2.155800
C     -6.230800   -0.057200   -1.137600
Si    -5.150400   -0.344400    0.379500
