26

C     -6.311300    1.578000   -1.684500
C     -4.945300    1.344500   -1.418000
C     -4.871000    0.361300   -0.389800
C     -3.986500   -0.343300    0.360900
S     -4.939700   -1.367800    1.415200
C     -6.458900   -0.807600    0.805100
C     -6.204700    0.108600   -0.147800
N     -7.130800    0.793700   -0.878700
C     -2.544600   -0.323900    0.364300
C     -1.698900    0.440900   -0.420200
N     -0.342200    0.268000   -0.217300
C     -0.145900   -0.630400    0.724000
S     -1.573500   -1.299600    1.399200
C      1.175800   -1.015800    1.148300
C      1.574900   -1.929800    2.109300
C      2.991800   -1.927700    2.130400
C      3.416500   -1.013100    1.182500
O      2.305500   -0.468000    0.594900
C      4.747500   -0.628800    0.803200
S      6.166900   -1.299000    1.526700
C      7.237500   -0.357200    0.560900
C      6.529400    0.443700   -0.287300
S      7.082100    1.633800   -1.521000
C      5.368400    1.890900   -1.817800
C      4.484600    1.133000   -1.041000
C      5.154300    0.270500   -0.129200
