26

C     -6.044900    1.609300    0.621600
C     -4.654500    1.380000    0.548400
C     -4.458000    0.008100    0.211000
C     -3.488800   -0.916200   -0.026700
S     -4.333400   -2.416600   -0.382500
C     -5.909500   -1.737600   -0.197300
C     -5.760000   -0.438600    0.118000
N     -6.766600    0.453200    0.348200
C     -2.015500   -0.848700   -0.028400
C     -1.199900   -1.939800   -0.305200
N      0.157200   -1.911900   -0.315100
C      0.777500   -0.741200   -0.036600
C      0.052400    0.425700    0.257600
C     -1.334600    0.340300    0.253900
N      0.626800    1.606900    0.539200
C      1.976700    1.666200    0.537000
C      2.825600    0.589600    0.263300
C      4.259000    0.649000    0.260100
C      5.036700    1.788100    0.529000
N      6.388000    1.826300    0.521600
C      7.016500    0.674500    0.232300
C      6.351800   -0.503300   -0.047300
C      4.969700   -0.526500   -0.035900
N      4.358100   -1.684700   -0.311500
C      3.003300   -1.714500   -0.302000
C      2.179300   -0.626600   -0.026000
