32

C      6.536100   -2.230000   -1.488300
C      5.192100   -1.866900   -1.258600
C      5.187000   -0.786400   -0.327100
C      4.355800    0.054000    0.346100
S      5.399400    1.093000    1.306800
C      6.864900    0.359400    0.765100
C      6.537100   -0.618400   -0.098400
N      7.409900   -1.438700   -0.751700
C      2.888900    0.201000    0.381900
C      2.231500    1.146800    1.156600
N      0.883000    1.313300    1.216600
C      0.076700    0.516700    0.479700
C      0.647100   -0.470300   -0.336100
C     -0.169900   -1.301300   -1.103300
C     -1.562300   -1.170200   -1.076600
C     -2.232300   -0.212200   -0.292000
C     -3.730000   -0.072000   -0.264000
C     -4.684100   -0.876900   -1.017300
N     -4.398400   -1.882400   -1.866600
S     -5.818700   -2.474700   -2.465400
N     -6.903500   -1.498700   -1.691100
C     -6.188300   -0.661100   -0.924500
C     -6.756800    0.331800   -0.103500
C     -5.852700    1.106000    0.620100
C     -4.434700    0.912900    0.541500
C     -3.516100    1.690200    1.268800
C     -3.802100    2.716800    2.136300
O     -2.649400    3.229000    2.649400
C     -1.618000    2.522900    2.104500
C     -2.096600    1.561400    1.245700
C     -1.350100    0.626200    0.485600
C      2.047600   -0.615100   -0.374100
