31

C     -5.885600   -2.445600    0.774500
C     -4.606400   -1.850100    0.739300
C     -4.761800   -0.541600    0.202900
C     -4.058600    0.572300   -0.116000
S     -5.209400    1.728400   -0.742400
C     -6.571200    0.674700   -0.539400
C     -6.119400   -0.484500   -0.023800
N     -6.865400   -1.582900    0.289300
C     -2.655600    0.840100   -0.024500
S     -1.425300   -0.374300   -0.200100
C     -0.110900    0.740200    0.039200
C      1.268700    0.303800   -0.025200
C      2.207300    0.851700   -0.897000
N      3.527900    0.511800   -1.012800
C      4.101300   -0.475400   -0.227800
C      5.517000   -0.808400   -0.405600
N      5.901900   -2.078700   -0.233500
C      7.197000   -2.304200   -0.434300
N      8.102800   -1.399700   -0.793600
C      7.607600   -0.175700   -0.950300
N      6.340200    0.184100   -0.773400
C      3.258300   -1.103000    0.731500
N      3.583900   -2.046000    1.636100
S      2.217500   -2.399700    2.496100
N      1.140800   -1.359900    1.794900
C      1.800000   -0.693600    0.829000
C     -0.655100    1.965100    0.221500
C     -0.264300    3.294300    0.459700
C     -1.462500    4.011600    0.552200
O     -2.597900    3.241500    0.391100
C     -2.029400    2.017700    0.191600
