31

C     -6.391500    0.154300    1.692500
C     -4.995800    0.152600    1.568600
C     -4.751700    0.377500    0.202200
C     -3.729700    0.506100   -0.675400
S     -4.428100    0.763400   -2.253400
C     -6.060600    0.698400   -1.668200
C     -6.007500    0.484200   -0.341600
O     -7.066900    0.362500    0.502800
C     -2.291800    0.457700   -0.506100
C     -1.484300   -0.550200   -1.067100
C     -0.050000   -0.634300   -0.888800
C      0.760000   -1.657900   -1.453300
C      0.259100   -2.682800   -2.234000
S      1.478100   -3.773900   -2.774800
C      2.714400   -2.891100   -1.971700
C      2.166500   -1.817300   -1.330800
C      2.876700   -0.842200   -0.555800
C      4.254600   -0.743100   -0.268400
C      5.430300   -1.450000   -0.552600
N      6.630600   -1.026600   -0.079600
C      6.681400    0.091500    0.672100
C      5.583800    0.863400    1.011200
C      4.363300    0.407100    0.515000
N      3.099200    0.938100    0.664900
C      2.136800    0.186800    0.021600
C      0.722700    0.317500   -0.109300
C     -0.109800    1.323000    0.451300
C      0.300200    2.362600    1.255700
S     -0.985100    3.397900    1.731400
C     -2.133700    2.469000    0.874100
C     -1.558100    1.382400    0.253200
