32

C     -6.382400    1.537200    1.649600
C     -5.013400    1.279900    1.495900
C     -4.934000    0.359500    0.436600
C     -4.026000   -0.343700   -0.277000
S     -4.899400   -1.269600   -1.468200
C     -6.450600   -0.690200   -0.946100
C     -6.242500    0.164300    0.071700
O     -7.193000    0.848200    0.764100
C     -2.584900   -0.388600   -0.212800
C     -1.744200    0.653800   -0.639500
C     -0.286700    0.611600   -0.556500
C      0.568200    1.654200   -0.991400
C      0.103800    2.828100   -1.545800
S      1.372800    3.893200   -1.971100
C      2.558200    2.788900   -1.417400
C      2.014600    1.625700   -0.914100
C      2.785600    0.537200   -0.386600
C      4.211200    0.458800   -0.288100
N      5.047800    1.446900   -0.698700
C      6.386800    1.301100   -0.574500
C      6.986500    0.182900   -0.042100
C      6.156700   -0.839800    0.385000
C      4.763200   -0.703600    0.262600
C      3.900400   -1.699500    0.676400
N      2.558500   -1.629200    0.586500
C      1.962200   -0.541300    0.066300
C      0.504500   -0.492500   -0.020300
C     -0.414100   -1.507100    0.403900
C     -0.117200   -2.721000    0.983100
N     -1.297000   -3.379200    1.242000
C     -2.361800   -2.609300    0.843600
C     -1.849400   -1.449500    0.310800
