31

C      6.105100    1.513300    1.375700
C      4.796300    1.012600    1.356700
C      4.480700    0.874800   -0.005800
C      3.473100    0.477000   -0.815700
S      4.016200    0.666000   -2.461900
C      5.576500    1.268900   -1.995600
C      5.614600    1.300400   -0.651300
O      6.657200    1.708000    0.121400
C      2.134500   -0.035100   -0.525800
C      1.056600    0.851800   -0.698800
C     -0.220300    0.385400   -0.401100
O     -1.343100    1.145600   -0.525100
C     -2.361600    0.331500   -0.140500
C     -1.898400   -0.897100    0.215200
S     -3.218600   -1.944200    0.712400
C     -4.391200   -0.684800    0.426600
C     -5.809700   -0.696100    0.590800
C     -6.603000    0.445600    0.301500
C     -5.847500    1.526800   -0.143100
C     -6.318000    2.766800   -0.501700
O     -5.273200    3.575700   -0.888600
C     -4.114400    2.843300   -0.776800
C     -4.460400    1.609700   -0.327700
C     -3.733300    0.441100   -0.021900
C     -0.480100   -0.899000    0.055600
C      0.602500   -1.800700    0.233200
C      0.365200   -3.112900    0.696100
C      1.421000   -4.004900    0.868100
C      2.718900   -3.603400    0.580000
C      2.966900   -2.306400    0.121200
C      1.925600   -1.365300   -0.062500
