32

C     -6.781700    0.557700    2.630900
C     -5.442500    0.408200    2.246600
C     -5.374400    0.949900    0.951600
C     -4.491800    1.170400   -0.049300
S     -5.358300    1.937800   -1.353800
C     -6.872200    1.927500   -0.502900
C     -6.659000    1.360900    0.698500
O     -7.583700    1.157500    1.675300
C     -3.063200    0.883200   -0.168100
C     -2.173900    1.955700   -0.018200
C     -0.802000    1.749700   -0.089800
C     -0.285600    0.465700   -0.309500
C      1.160800    0.327500   -0.368300
S      2.162000    0.171200    1.028900
C      3.641800    0.075400    0.098700
C      4.938600   -0.101500    0.752500
C      5.857300   -1.034900    0.249700
C      7.104000   -1.209400    0.856200
C      7.449200   -0.450100    1.971600
C      6.549400    0.483100    2.481000
C      5.302000    0.657100    1.874900
C      3.294600    0.167500   -1.209000
C      3.874500    0.182400   -2.491200
C      2.798900    0.327100   -3.376600
O      1.564400    0.409900   -2.760200
C      1.950300    0.308400   -1.458100
C     -1.163600   -0.643900   -0.466800
C     -0.694800   -1.963000   -0.690000
C     -1.563000   -3.043100   -0.846400
C     -2.930000   -2.836500   -0.786600
C     -3.424200   -1.551000   -0.566900
C     -2.569800   -0.432500   -0.397200
