31

C      6.466900    2.469400   -0.730200
C      5.093200    2.203200   -0.658000
C      4.999700    0.901100   -0.132300
C      4.077600   -0.030300    0.212300
S      4.957000   -1.426400    0.794700
C      6.511800   -0.703500    0.542600
C      6.309200    0.529400    0.046700
O      7.269300    1.431900   -0.291100
C      2.616000   -0.007500    0.190900
C      1.922400    1.102000    0.662400
C      0.517300    1.146600    0.635900
C     -0.295200    0.109300    0.122100
C      0.444300   -1.040000   -0.311400
C      1.868300   -1.080700   -0.290400
C     -0.376300   -2.121000   -0.738600
C      0.125000   -3.327500   -1.180100
S     -1.112600   -4.431300   -1.602500
C     -2.334500   -3.303000   -1.193500
C     -1.822200   -2.104800   -0.743000
C     -2.600700   -0.997400   -0.351000
C     -4.020900   -0.980200   -0.349000
O     -4.902800   -1.987400   -0.667700
C     -6.169000   -1.494500   -0.517700
C     -6.149300   -0.176800   -0.109700
C     -4.792700    0.105700   -0.012300
C     -4.095600    1.272600    0.325000
C     -4.592400    2.495800    0.635600
O     -3.520800    3.321900    0.817100
C     -2.385000    2.574800    0.613200
C     -2.682600    1.253700    0.336400
C     -1.789100    0.156800    0.054000
