32

Si    -0.353900   -0.304900   -1.571900
C     -1.663600   -0.568500   -0.225900
C     -1.142700   -0.653400    1.013200
C      0.308800   -0.515600    1.019500
C      0.998900   -0.320700   -0.213400
C      2.442400   -0.171200   -0.329100
C      3.130900    0.024400   -1.574900
N      2.574900    0.099400   -2.805000
S      3.801500    0.332400   -3.909900
N      5.120400    0.351500   -2.887700
C      4.568700    0.174200   -1.694400
C      5.363300    0.125800   -0.504700
C      6.768800    0.260400   -0.509700
C      7.251900    0.172500    0.772900
S      6.005100   -0.065900    1.916300
C      4.741000   -0.061500    0.720200
C      3.327900   -0.208100    0.832900
C      2.595800   -0.403000    2.032900
C      3.048900   -0.494700    3.330000
N      1.962300   -0.684500    4.159400
C      0.805000   -0.718200    3.422100
C      1.164200   -0.547600    2.108900
C     -3.083200   -0.671500   -0.567900
C     -3.580300   -1.949300   -0.871000
C     -4.918900   -2.128000   -1.203600
C     -5.778200   -1.032600   -1.229800
C     -5.316200    0.255100   -0.917500
C     -6.200300    1.346900   -0.941600
C     -5.763000    2.633100   -0.628500
C     -4.434800    2.844900   -0.284600
C     -3.543300    1.770300   -0.257000
C     -3.954600    0.453600   -0.574500
