28

C      6.119900    1.348500    1.041100
C      4.746900    1.177200    0.828100
C      4.427800   -0.086400    0.254600
C      3.279600   -0.709000   -0.120000
S      3.713400   -2.285100   -0.696900
C      5.394800   -2.039900   -0.434600
C      5.616900   -0.800200    0.089600
S      7.152000    0.004900    0.580000
C      1.915200   -0.264600   -0.097400
C      1.376500    0.998600   -0.030800
C     -0.051600    0.888400   -0.018200
C     -0.360800   -0.470800   -0.117000
N      0.850200   -1.129300   -0.139200
C     -1.693200   -0.933100   -0.151700
C     -2.124800   -2.281300   -0.290000
C     -1.339000   -3.391900   -0.504900
S     -2.248000   -4.851500   -0.608600
C     -3.727100   -4.017500   -0.409400
C     -3.517800   -2.668000   -0.265800
C     -4.584500   -1.797600   -0.118600
C     -4.150100   -0.458700   -0.013800
C     -2.777100    0.018000   -0.030200
C     -2.463000    1.414400    0.069800
C     -3.429500    2.452500    0.171100
C     -3.085000    3.806500    0.261000
C     -1.753300    4.184500    0.253200
C     -0.768400    3.207800    0.156800
C     -1.106900    1.836600    0.065900
