28

C      6.742000    0.630900    0.260300
C      5.343700    0.615300    0.192300
C      4.787700   -0.680600    0.403100
C      3.534000   -1.206200    0.436400
S      3.694100   -2.902900    0.757400
C      5.408600   -2.841800    0.833100
C      5.846600   -1.568000    0.620400
S      7.522000   -0.906200    0.583400
C      2.232700   -0.617200    0.261800
C      1.875400    0.700800    0.000700
C      0.455900    0.768500   -0.083900
C      0.039500   -0.526100    0.133700
O      1.076000   -1.362800    0.340500
C     -1.450100   -0.881100    0.123500
N     -2.023900   -2.097100    0.318500
C     -3.389500   -1.966400    0.225100
C     -4.413500   -2.905600    0.346300
C     -5.707200   -2.418100    0.190800
C     -5.898100   -1.068300   -0.067700
N     -4.922900   -0.144100   -0.188600
C     -3.657800   -0.617500   -0.037100
C     -2.412500    0.082000   -0.102900
C     -1.953800    1.417900   -0.325900
C     -2.891100    2.440600   -0.562000
C     -2.471300    3.754500   -0.782900
C     -1.114400    4.075100   -0.773100
C     -0.155800    3.086400   -0.542200
C     -0.547100    1.753100   -0.316300
