31

C      6.025100   -1.603600    1.280700
C      4.706500   -1.343400    0.888700
C      4.573200   -0.095400    0.225300
C      3.530000    0.575800   -0.321600
S      4.134500    2.069800   -0.940000
C      5.755300    1.732800   -0.455400
C      5.822800    0.519000    0.166100
S      7.213800   -0.366600    0.887900
C      2.123800    0.247600   -0.440700
C      1.097700    0.945700    0.247300
C     -0.325400    0.662200    0.199400
C     -1.294300    1.429500    0.935600
C     -0.968500    2.531300    1.769300
C     -1.933700    3.259600    2.474700
C     -3.271900    2.916700    2.376600
C     -3.646800    1.845900    1.572600
C     -2.680400    1.104000    0.855900
C     -3.106600    0.021000    0.047500
C     -2.163000   -0.712100   -0.660200
O     -2.739800   -1.717000   -1.386300
C     -4.072500   -1.631200   -1.145400
C     -5.171800   -2.381900   -1.602000
C     -6.321000   -1.865400   -1.040800
S     -6.049600   -0.514900    0.002200
C     -4.339900   -0.611600   -0.297100
C     -0.790300   -0.431000   -0.613900
C      0.222700   -1.136300   -1.310700
C      0.021800   -2.209600   -2.150400
S      1.485700   -2.796600   -2.828200
C      2.414800   -1.614800   -2.007900
C      1.628900   -0.802100   -1.222100
