28

C      6.611800    1.375400   -0.130900
C      5.215400    1.277600   -0.150000
C      4.743400   -0.040800    0.115400
C      3.521200   -0.631400    0.205600
S      3.790800   -2.308200    0.567900
C      5.500200   -2.148900    0.582800
C      5.857700   -0.859500    0.320200
S      7.490100   -0.104800    0.207000
C      2.191400   -0.101100    0.055600
C      1.753700    1.184500   -0.229100
C      0.358600    1.112800   -0.253500
C     -0.592600    2.141400   -0.498300
N     -0.231300    3.389300   -0.752300
S     -1.708900    4.150400   -0.955400
N     -2.750300    2.868500   -0.713400
C     -2.004600    1.770300   -0.459700
C     -2.466600    0.428700   -0.188700
C     -1.445800   -0.524100    0.042100
N     -1.656100   -1.829000    0.312500
C     -2.945800   -2.218300    0.358400
C     -4.038100   -1.374900    0.148800
C     -5.357400   -1.851300    0.212300
C     -6.415600   -0.981000   -0.002000
C     -6.114600    0.336300   -0.272500
N     -4.854400    0.818400   -0.338800
C     -3.806900   -0.012700   -0.133200
C     -0.090800   -0.158300    0.003000
N      1.060200   -0.892700    0.191200
