31

C      6.625800    3.038500    0.407400
C      5.364000    2.438100    0.334100
C      5.404500    1.028900    0.537700
C      4.466600    0.040500    0.559600
S      5.322300   -1.438900    0.875200
C      6.859300   -0.678100    0.960400
C      6.733500    0.663200    0.755600
S      7.978100    1.965500    0.727900
C      3.006100    0.070700    0.372500
C      2.189200   -1.051800    0.428400
C      0.800200   -0.898100    0.232900
C     -0.121400   -1.979700    0.269800
N      0.198400   -3.272700    0.492000
S     -1.218000   -4.145200    0.437600
N     -2.301800   -2.919700    0.129300
C     -1.559300   -1.829400    0.068700
C     -2.091200   -0.506000   -0.184300
C     -1.167200    0.538600   -0.215700
S     -1.998300    2.028500   -0.529600
C     -3.545500    1.284400   -0.618500
C     -4.778100    1.968500   -0.869100
C     -6.009200    1.303900   -0.929600
C     -5.852700   -0.050300   -0.719300
C     -6.891400   -0.947800   -0.722900
O     -6.417500   -2.206000   -0.486400
C     -5.057000   -2.109600   -0.329600
C     -4.686200   -0.804300   -0.467100
C     -3.425000   -0.089700   -0.409900
C      0.247400    0.368900   -0.014800
C      1.157400    1.430000   -0.050300
N      2.495500    1.303900    0.134900
