31

Si    -1.239900    0.334800    4.117200
C      0.315500   -0.003600    3.160900
C      0.079600    0.015900    1.834700
C      1.067000    0.025400    0.810100
C      2.466100   -0.151100    0.839800
C      2.929300    0.006500   -0.456000
N      1.829000    0.276900   -1.245900
C      0.686000    0.302500   -0.487900
C     -0.696000    0.498700   -0.947000
C     -0.983700    0.849100   -2.267400
C     -2.306000    0.943300   -2.704900
C     -3.380300    0.592500   -1.883000
C     -4.708100    0.638500   -2.458400
C     -5.895400    0.226000   -1.819800
C     -5.592100   -0.285000   -0.574400
C     -6.476900   -0.896100    0.272200
O     -5.801000   -1.383700    1.352500
C     -4.481000   -1.069300    1.182500
C     -4.304200   -0.323100    0.042100
C     -3.092000    0.179300   -0.526800
C     -1.751700    0.275900   -0.015600
C     -1.347900    0.213200    1.433100
C     -2.139000    0.515500    2.486100
C      4.257300   -0.074100   -0.984200
S      4.656200    0.148600   -2.664400
C      6.358700   -0.105800   -2.414700
C      6.546000   -0.342300   -1.100000
C      7.581500   -0.619000   -0.194800
C      6.948600   -0.740900    1.048300
O      5.578300   -0.562200    1.008400
C      5.410500   -0.325500   -0.324700
