25

C     -4.885900    2.187700   -1.252600
C     -3.798800    1.425600   -0.808900
C     -4.196200    0.214200   -0.177500
C     -3.534400   -0.822600    0.397800
S     -4.723700   -1.947000    0.955200
C     -6.045500   -0.993500    0.401200
C     -5.590000    0.148300   -0.191000
S     -6.481700    1.516000   -0.950600
C     -2.122300   -1.034200    0.559800
C     -1.447300   -2.095200    1.148500
C     -0.057500   -1.827900    1.054500
C      1.120000   -2.462200    1.433400
N      2.321200   -1.882000    1.166400
C      2.429000   -0.680800    0.530400
C      1.275600    0.003100    0.125900
C      1.363000    1.226500   -0.522600
N      2.539200    1.813100   -0.794000
C      3.653800    1.164200   -0.409600
C      4.876400    1.756900   -0.682600
C      6.072300    1.148400   -0.316700
C      6.002500   -0.066100    0.327700
N      4.840000   -0.683200    0.615800
C      3.669200   -0.085800    0.256700
C      0.049200   -0.610300    0.409800
O     -1.188900   -0.129800    0.110700
