31

C     -6.750100    1.988200    0.773000
C     -5.461300    1.464100    0.617700
C     -5.471600    0.100900    0.218300
C     -4.506400   -0.814500   -0.046100
S     -5.292400   -2.300500   -0.443100
C     -6.872300   -1.636900   -0.254600
C     -6.795100   -0.323700    0.110300
S     -8.083400    0.884300    0.459400
C     -3.062700   -0.729800   -0.042900
C     -2.204200   -1.508100    0.771100
C     -0.768200   -1.392100    0.768400
C     -0.032500   -0.489800   -0.047500
C      1.406700   -0.377500   -0.065800
C      2.231100   -0.672500   -1.185900
C      3.668000   -0.571900   -1.193400
C      4.437200   -0.154100   -0.080600
C      5.880000   -0.061700   -0.080200
C      6.824800   -1.050400   -0.281300
N      8.145100   -0.641800   -0.252900
C      8.187800    0.655300   -0.044300
S      6.676100    1.446300    0.123800
C      3.620500    0.124900    1.018300
C      3.982000    0.521300    2.280800
O      2.865000    0.688400    3.051600
C      1.779600    0.387000    2.277400
C      2.192500    0.017300    1.022600
C     -0.903500    0.260700   -0.844800
C     -0.591600    1.239900   -1.753700
O     -1.735500    1.719300   -2.328600
C     -2.789300    1.046400   -1.775500
C     -2.330800    0.151100   -0.842700
