25

C     -5.712900    1.974800   -0.892200
C     -4.427500    1.436400   -0.758300
C     -4.437300    0.134300   -0.189600
C     -3.474900   -0.771400    0.120100
S     -4.266400   -2.167100    0.765500
C     -5.839800   -1.486400    0.594200
C     -5.759300   -0.233000    0.060300
S     -7.043300    0.959500   -0.351500
C     -2.020300   -0.717600    0.018200
C     -1.286800   -1.720200   -0.615400
N      0.062500   -1.718300   -0.750200
C      0.725100   -0.661200   -0.223000
C      2.125300   -0.642500   -0.350600
S      3.181000   -1.776900   -1.091000
C      4.583700   -0.861300   -0.716300
C      5.910600   -1.182800   -1.027800
C      6.868300   -0.276100   -0.614400
N      6.599900    0.862600    0.050400
C      5.312000    1.160500    0.345300
C      4.261800    0.307600   -0.029000
C      2.843200    0.428600    0.179200
N      2.244800    1.472900    0.823900
C      0.903400    1.418600    0.927100
C      0.097700    0.399800    0.433200
C     -1.303000    0.361000    0.548500
