28

C     -0.461200   -0.134400   -3.692900
C     -1.082600   -0.324300   -2.343800
C     -0.175700   -0.108000   -1.372800
C     -0.314800   -0.260300    0.096400
C      0.896100   -0.568300    0.771000
N      0.899100   -1.098400    2.013100
C     -0.292300   -1.312200    2.599200
C     -1.518400   -0.911400    2.079000
C     -2.686400   -1.164100    2.807200
C     -3.917200   -0.712700    2.351900
C     -3.995400    0.084800    1.212500
C     -5.239900    0.626700    0.846500
C     -5.350100    1.518900   -0.214700
C     -4.209500    1.899100   -0.900700
C     -2.972200    1.347800   -0.551900
C     -2.820600    0.374500    0.467400
C     -1.554000   -0.249400    0.831200
C      2.215800   -0.293300    0.154900
C      3.474300   -0.298600    0.786400
C      3.786300   -0.587000    2.094900
N      5.148900   -0.452900    2.250600
C      5.726600   -0.066900    1.063100
C      4.711700    0.037300    0.147300
C      4.877300    0.419800   -1.173500
C      3.634900    0.436700   -1.840700
C      2.371000    0.097800   -1.224000
C      1.124500    0.096800   -2.008900
C      0.972300    0.117000   -3.344400
