34

C     -6.189200    1.418500   -0.133100
C     -6.154600    0.068500    0.153900
C     -4.795700   -0.210100    0.222100
C     -4.077000   -1.398100    0.428900
C     -4.581700   -2.652600    0.583600
N     -3.468500   -3.455300    0.636300
C     -2.321800   -2.689200    0.485800
C     -2.660700   -1.352400    0.436100
C     -1.781400   -0.218300    0.283100
C     -2.628200    0.935400   -0.026400
C     -1.874800    2.066500   -0.348000
C     -2.334200    3.305300   -0.725500
O     -1.284600    4.137800   -0.978300
C     -0.143500    3.425600   -0.759400
C     -0.452400    2.142800   -0.371800
C      0.445700    1.111200   -0.027500
C      1.863100    1.304400   -0.061500
C      2.771000    0.327100    0.353500
C      4.214100    0.508200    0.314800
S      4.947700    1.870000    1.090400
C      6.542900    1.405300    0.635400
C      6.512300    0.249000   -0.088900
S      7.839500   -0.710200   -0.837600
C      6.553100   -1.780000   -1.379400
C      5.251000   -1.418500   -1.014100
C      5.209900   -0.223600   -0.246400
C      2.196400   -0.860000    0.871000
N      2.877700   -1.897300    1.391900
S      1.770400   -2.980200    1.949200
N      0.374300   -2.218800    1.525400
C      0.679500   -1.069000    0.900000
C     -0.266500   -0.095800    0.370200
C     -4.042100    0.911100   -0.019200
O     -4.928000    1.937600   -0.246100
