28

C      5.240300    3.051300    0.045200
C      5.684600    1.739500    0.060600
C      4.510800    0.997100    0.066200
C      4.229900   -0.387800    0.094000
C      5.149000   -1.397000    0.136900
N      4.410800   -2.564500    0.184500
C      3.049800   -2.281500    0.176700
C      2.929100   -0.921900    0.099400
C      1.756800   -0.100400    0.065700
C      1.992700    1.264700    0.062100
O      0.818800    1.955100    0.069600
C     -0.182000    1.016000    0.064300
C     -1.562200    1.313900    0.075100
C     -2.527900    0.277300    0.069400
C     -3.963900    0.532000    0.102500
C     -4.818000   -0.076000    1.021900
C     -6.175500    0.236600    0.998000
C     -6.645800    1.151500    0.065700
C     -5.733300    1.723000   -0.803100
N     -4.412300    1.439200   -0.800400
C     -1.929800   -0.989700    0.002600
C     -2.574700   -2.201100   -0.115900
O     -1.667600   -3.223500   -0.188300
C     -0.414500   -2.668500   -0.138700
C     -0.553000   -1.322300   -0.018300
C      0.384900   -0.255600    0.041900
C      3.428300    1.833400    0.056400
O      3.870200    3.120700    0.044300
