29

C      5.482500   -1.528700   -0.203100
C      5.516900   -0.150900   -0.121500
C      4.173900    0.202900   -0.087000
C      3.520000    1.444200   -0.006700
C      4.095400    2.675200    0.060700
N      3.031600    3.540300    0.122800
C      1.834700    2.832800    0.092700
C      2.102300    1.479500    0.009600
C      1.170300    0.376700   -0.046600
C     -0.340400    0.367300   -0.032000
C     -1.177200    1.488200    0.043000
N     -2.541900    1.504500    0.057600
C     -3.213700    0.327800   -0.005600
C     -2.515100   -0.868300   -0.083700
C     -1.101000   -0.841100   -0.096200
C     -0.283300   -1.986500   -0.172500
C     -0.682700   -3.298100   -0.246500
O      0.409900   -4.113000   -0.305900
C      1.515100   -3.312200   -0.269300
C      1.139100   -1.993700   -0.187200
C      1.954100   -0.860600   -0.128000
C      3.365100   -0.904400   -0.144700
O      4.196600   -1.996300   -0.218000
C     -4.699100    0.378100    0.012300
N     -5.293500    1.576700    0.089500
C     -6.621300    1.547500    0.101000
N     -7.380700    0.457200    0.043800
C     -6.689100   -0.675500   -0.030400
N     -5.363000   -0.787600   -0.050400
