28

Si    -0.782400   -3.884600   -1.072800
C      0.835500   -2.971700   -1.003200
C      0.668200   -1.729100   -0.510900
C      1.706400   -0.840600   -0.109900
C      3.108900   -0.895200   -0.248300
C      3.626600    0.227800    0.376100
N      2.557700    0.940200    0.883900
C      1.379400    0.296800    0.602000
C      0.014100    0.736000    0.907900
C     -0.265200    1.854400    1.674600
N     -1.507100    2.334200    1.909800
C     -2.545000    1.766600    1.289000
C     -3.804800    2.393100    1.522800
C     -5.039300    2.055900    0.923600
C     -4.838000    1.039400    0.014100
C     -5.775000    0.535400   -0.846000
O     -5.180100   -0.371600   -1.674200
C     -3.859300   -0.438800   -1.325200
C     -3.607700    0.361200   -0.237300
C     -2.370500    0.622400    0.431200
C     -1.074400    0.016100    0.358000
C     -0.745700   -1.334600   -0.214900
C     -1.603200   -2.371400   -0.334600
C      4.991100    0.651200    0.517600
C      6.134100    0.025200    0.051500
N      7.334400    0.654700    0.329600
C      7.092500    1.754900    1.004900
S      5.446500    2.092600    1.339800
