27

C     -0.040000    4.209500    0.296000
C      1.318500    3.814000   -0.198300
C      1.374100    2.478900   -0.303000
C      2.486700    1.629700   -0.591700
C      3.747400    1.913400   -1.232000
C      4.423200    0.770600   -1.401100
C      3.638900   -0.371600   -0.815800
C      2.387800    0.306900   -0.316400
C      1.123600   -0.341400    0.195500
C      1.043400   -1.668500    0.704400
C      2.186600   -2.383400    1.146500
C      2.136700   -3.685800    1.638900
C      0.920200   -4.320900    1.730200
C     -0.234500   -3.636100    1.353600
C     -0.231000   -2.303600    0.851200
C     -1.445900   -1.622700    0.482600
C     -2.763900   -2.274800    0.552400
C     -4.015500   -1.744000    0.164600
C     -3.832900   -0.487800   -0.362800
C     -4.823400    0.256000   -0.950000
N     -4.219400    1.384100   -1.450100
C     -2.865900    1.345400   -1.191900
C     -2.601200    0.223200   -0.438000
C     -1.336800   -0.256900    0.039600
C     -0.080400    0.415100    0.062200
C      0.088000    1.892100    0.039400
C     -0.720800    2.881400    0.459200
