27

C     -1.974100   -3.384800   -1.365100
C     -2.949100   -2.446700   -0.724900
C     -2.286700   -1.382500   -0.243900
C     -2.790900   -0.159800    0.360800
C     -4.117400    0.008100    0.770300
C     -4.504000    1.200600    1.367100
C     -3.545600    2.179900    1.537600
N     -2.257700    2.049000    1.151800
C     -1.875000    0.891900    0.547800
C     -0.400700    0.758000    0.177800
C      0.517300    1.916800    0.037400
C      0.151200    3.217900    0.013900
Si     1.562200    4.371200   -0.325700
C      2.655000    2.867500   -0.463500
C      1.963400    1.728200   -0.244600
C      2.536000    0.366600   -0.222100
C      3.946700    0.164000   -0.248200
C      4.559600   -1.079700   -0.045700
C      3.690800   -2.143600    0.265500
N      4.088800   -3.387500    0.573300
S      2.718500   -4.239700    0.939900
N      1.566400   -3.081500    0.694700
C      2.186100   -1.957900    0.285700
C      1.598200   -0.695400   -0.057500
C      0.108600   -0.490500   -0.093600
C     -0.858300   -1.529900   -0.476200
C     -0.674600   -2.661600   -1.180400
