35

C     -6.214800   -0.371600   -1.436600
C     -6.219400    0.427100   -0.311000
C     -4.871700    0.541900    0.003600
C     -4.193200    1.174700    1.053400
C     -4.711900    1.842100    2.114300
O     -3.662600    2.172600    2.922800
C     -2.517900    1.700500    2.325100
C     -2.780900    1.108300    1.105700
C     -1.863300    0.474900    0.191200
C     -2.671700   -0.233600   -0.805300
C     -1.885000   -1.006800   -1.668100
C     -2.323700   -1.816100   -2.691300
N     -1.223300   -2.403200   -3.266200
C     -0.082500   -1.982900   -2.624700
C     -0.461100   -1.113600   -1.624900
C      0.399200   -0.425000   -0.740700
C      1.821900   -0.584300   -0.788500
C      2.709900    0.128000    0.027500
C      4.146200   -0.051400   -0.022600
N      4.767000    0.004800   -1.249400
C      6.123000   -0.148200   -1.368800
C      7.036200   -0.398500   -0.350600
C      6.441100   -0.512600    0.919300
N      7.095800   -0.777900    2.061200
S      5.948600   -0.826600    3.260200
N      4.571500   -0.540300    2.383100
C      4.955900   -0.346300    1.107500
C      2.097500    1.106400    0.848000
N      2.754100    1.995700    1.616300
S      1.624000    2.959600    2.325600
N      0.247200    2.314200    1.693900
C      0.578400    1.274000    0.910500
C     -0.346100    0.441600    0.156700
C     -4.085100   -0.157000   -0.879000
O     -4.943200   -0.733900   -1.786500
