26

C      4.601200    0.148000   -0.210500
C      4.241900   -1.159000    0.036200
C      2.854300   -1.119900    0.125300
C      1.935400   -2.149600    0.383500
C      2.183400   -3.452600    0.670600
O      0.980000   -4.032100    0.953500
C      0.018600   -3.059200    0.818800
C      0.556700   -1.859100    0.397300
C     -0.108900   -0.607500    0.171100
C      0.929000    0.426400    0.055900
C      0.364900    1.715200    0.042400
C      1.021100    2.927200    0.068700
N      0.075800    3.927500    0.073500
C     -1.181300    3.379500    0.077800
C     -1.039000    2.009300    0.076300
C     -2.094400    1.070200    0.083100
C     -3.473100    1.468800    0.075000
C     -4.525100    0.559700    0.007100
C     -4.144900   -0.788500   -0.110500
N     -5.015700   -1.799400   -0.256800
S     -4.115800   -3.172100   -0.441000
N     -2.593200   -2.549300   -0.317800
C     -2.687300   -1.227300   -0.092900
C     -1.585900   -0.290800    0.079800
C      2.330500    0.150500   -0.020800
N      3.456400    0.918800   -0.250100
