30

C     -6.739800   -1.697600    0.008100
C     -6.726900   -0.368800    0.379200
C     -5.394900    0.010500    0.255400
C     -4.768700    1.248000    0.494900
C     -5.312700    2.416900    0.917700
O     -4.294200    3.325100    0.997200
C     -3.138600    2.683500    0.617000
C     -3.378400    1.365000    0.287300
C     -2.454400    0.357500   -0.155700
C     -3.165000   -0.868000   -0.376900
C     -2.434400   -1.968400   -0.812100
N     -1.105700   -1.962900   -1.040100
C     -0.424800   -0.827600   -0.839000
C      0.940100   -0.876400   -1.087500
C      1.778000    0.231800   -0.918700
C      1.205300    1.425000   -0.488800
C     -0.166800    1.495700   -0.232600
C     -1.022300    0.378900   -0.397400
C      3.219200    0.140200   -1.195600
C      3.659300    0.391100   -2.508300
C      5.009600    0.327300   -2.836000
C      5.944800    0.011200   -1.855000
C      5.545700   -0.247400   -0.535500
C      6.504600   -0.566600    0.440600
C      6.130000   -0.829700    1.757300
C      4.789900   -0.777900    2.115800
C      3.824700   -0.461600    1.157100
C      4.171800   -0.187400   -0.187300
C     -4.579300   -1.017600   -0.174400
N     -5.454300   -2.080100   -0.321600
