29

C      6.106700    0.614800    0.027500
C      5.770700    0.296100    1.324000
C      4.391300    0.121800    1.284700
C      3.498800   -0.204000    2.319000
C      3.769400   -0.477300    3.620500
O      2.582600   -0.801400    4.213700
C      1.607400   -0.710100    3.250000
C      2.122100   -0.284200    2.039700
C      1.441400   -0.078000    0.793500
C     -0.029100   -0.060500    0.535800
C     -1.016900   -0.039000    1.545800
C     -2.399200   -0.050300    1.287400
C     -2.906800   -0.056500   -0.012600
C     -1.964500   -0.037900   -1.046300
C     -0.559900   -0.017200   -0.789500
C      0.443100    0.051200   -1.796200
C      0.151900    0.076800   -3.144100
S      1.559000    0.119300   -4.112300
C      2.572500    0.100000   -2.730800
C      1.870700    0.122200   -1.544400
C      2.452100    0.113300   -0.256300
C      3.850900    0.271300    0.019700
N      4.957200    0.617400   -0.737100
C     -4.363500   -0.069600   -0.258900
C     -4.955900    0.558200   -1.355800
C     -6.339600    0.497100   -1.515200
C     -7.103100   -0.185100   -0.578700
C     -6.447900   -0.775400    0.486000
N     -5.109400   -0.728800    0.665600
