31

C     -6.242200   -0.386100    1.194300
C     -5.983400    0.857000    0.662100
C     -4.614100    0.843900    0.417800
C     -3.788300    1.848400   -0.112800
C     -4.132300    3.080200   -0.567100
O     -2.992100    3.660200   -1.045700
C     -1.970000    2.760200   -0.863100
C     -2.406000    1.612900   -0.227200
C     -1.658700    0.440900    0.128500
C     -0.179100    0.246700    0.101000
C      0.760300    1.287400   -0.082500
C      2.150900    1.086300   -0.136200
C      2.705100   -0.181700    0.013300
C      1.824300   -1.238800    0.247500
C      0.414000   -1.035600    0.313100
C     -0.535200   -2.056900    0.594700
C     -0.179100   -3.371400    0.812600
S     -1.535000   -4.374800    1.084600
C     -2.612500   -3.053700    0.911000
C     -1.967400   -1.852200    0.709000
C     -2.608200   -0.604500    0.535500
C     -4.008600   -0.360900    0.728400
N     -5.059600   -1.096500    1.248700
C      4.148800   -0.385200   -0.047800
S      5.017400   -1.495300    0.969900
C      6.564800   -1.098600    0.279300
C      6.359000   -0.161500   -0.669000
C      7.075500    0.603000   -1.602100
C      6.106700    1.379200   -2.250800
O      4.816000    1.169800   -1.800700
C      5.052200    0.226400   -0.844800
