27

C     -5.117600    0.373700    2.909600
C     -5.595800    0.729600    1.658800
C     -4.479900    0.619900    0.840000
C     -4.255500    0.832600   -0.541400
C     -5.140800    1.229800   -1.499100
O     -4.470200    1.301100   -2.701600
C     -3.157000    0.942500   -2.477300
C     -3.009900    0.651800   -1.152600
C     -1.851500    0.236600   -0.441500
C     -0.527000   -0.011100   -0.802300
C      0.267700    0.023000   -1.959200
C      1.625800   -0.322200   -1.855100
C      2.203400   -0.700400   -0.631000
C      1.416700   -0.735300    0.531700
C      0.071700   -0.388400    0.406300
O     -0.829300   -0.372000    1.441800
C     -2.016100    0.016000    0.905600
C     -3.394800    0.217300    1.577400
O     -3.782200    0.060900    2.872100
C      3.623400   -1.044800   -0.549200
S      4.307700   -2.245500   -1.590000
C      5.880700   -2.098900   -0.902100
C      5.879100   -1.163600    0.091800
S      7.201800   -0.575300    1.162300
C      5.970200    0.475300    1.850000
C      4.686800    0.368400    1.301000
C      4.615100   -0.600700    0.264300
