25

C     -5.426700   -1.680700    1.016400
C     -5.522800   -0.424700    0.440600
C     -4.198900   -0.048900    0.259000
C     -3.571400    1.095900   -0.270700
C     -4.161400    2.213800   -0.779800
O     -3.166900    3.074500   -1.181700
C     -1.954900    2.474000   -0.914400
C     -2.181800    1.249400   -0.350700
C     -1.248100    0.250500    0.101500
C      0.171200    0.258100    0.088300
C      1.138200    1.175800   -0.339500
N      2.461800    0.913300   -0.228100
C      2.900700   -0.256300    0.305800
C      2.005900   -1.222300    0.755300
C      0.635100   -0.947600    0.638600
S     -0.662000   -1.994700    1.128000
C     -1.820000   -0.883600    0.625900
C     -3.361900   -1.035400    0.706200
O     -4.119600   -2.061700    1.182400
C      4.372900   -0.458100    0.388400
N      5.173700    0.516400   -0.064300
C      6.474800    0.270300    0.039800
N      7.025200   -0.831500    0.541700
C      6.140500   -1.730800    0.960500
N      4.815800   -1.611100    0.914600
