29

C     -6.295600   -1.296700   -1.022200
C     -6.254100    0.015800   -0.607400
C     -4.923000    0.384900   -0.355900
C     -4.486900    1.664500    0.088900
C     -5.188400    2.794400    0.370600
O     -4.286000    3.751000    0.762000
C     -3.036100    3.182600    0.712000
C     -3.118000    1.872900    0.294000
C     -2.059800    0.959400    0.116400
C     -0.679900    1.209400    0.335700
C      0.281200    0.212400    0.122100
C      1.687500    0.483600    0.350600
C      2.784400   -0.426500    0.178100
C      4.204600   -0.106700    0.423300
C      4.642900    1.146800    0.860700
C      6.003700    1.378800    1.072300
C      6.911800    0.358200    0.845500
C      6.415800   -0.854800    0.415000
N      5.102300   -1.099000    0.204300
C      2.269100   -1.659800   -0.260200
C      2.941300   -2.822500   -0.555100
O      2.067300   -3.795600   -0.948800
C      0.815300   -3.258600   -0.908900
C      0.884400   -1.953400   -0.493600
C     -0.192000   -1.057500   -0.323500
C     -1.567700   -1.321900   -0.546800
C     -2.524900   -0.316100   -0.330000
C     -3.935400   -0.573200   -0.554600
S     -4.741000   -2.020900   -1.089800
