25

C     -4.969200    1.915500    0.536000
C     -5.239400    0.640800    0.081700
C     -3.986500    0.061600   -0.088800
C     -3.634800   -1.234100   -0.534300
C     -4.400100   -2.286000   -0.923400
O     -3.546300   -3.308000   -1.259700
C     -2.262100   -2.854500   -1.067000
C     -2.272600   -1.555300   -0.611400
C     -1.164500   -0.736200   -0.295100
C      0.202600   -1.082400   -0.380900
C      1.191300   -0.150300   -0.028000
C      2.556700   -0.464800   -0.102700
C      3.505300    0.490100    0.257100
N      3.152000    1.725500    0.681300
C      1.832300    2.015800    0.748800
C      0.808300    1.132800    0.412200
C     -0.554000    1.485800    0.500500
C     -1.556500    0.564000    0.150900
C     -2.947500    0.919700    0.239400
N     -3.600600    2.075700    0.628000
C      4.948700    0.217000    0.198900
C      5.631200   -0.928100   -0.185000
N      7.012200   -0.877500   -0.131200
C      7.377500    0.309400    0.294800
S      6.116500    1.408800    0.647600
