32

C     -6.517200    0.511700    0.042800
C     -6.283600   -0.840800    0.187000
C     -4.894600   -0.936900    0.167600
C     -4.017300   -2.034200    0.313700
C     -4.445800   -3.308500    0.543700
S     -3.074400   -4.306400    0.785900
C     -1.987500   -2.974800    0.588000
C     -2.609000   -1.787900    0.249100
C     -1.926500   -0.530900    0.007500
C     -0.452200   -0.245300   -0.176100
C      0.550600   -1.225700   -0.350200
C      1.921600   -0.929300   -0.479700
C      2.388600    0.384700   -0.474100
C      1.442800    1.402300   -0.362400
C      0.061700    1.093900   -0.241800
C     -0.960100    2.063600   -0.207000
C     -0.824800    3.428300   -0.277200
O     -2.053800    4.019600   -0.244200
C     -2.980400    3.021100   -0.156400
C     -2.354700    1.798500   -0.130700
C     -2.931900    0.530600   -0.033900
C     -4.319800    0.300400    0.022500
O     -5.346200    1.210200   -0.052600
C      3.826400    0.666200   -0.603400
S      4.367200    1.905200   -1.685100
C      6.019800    1.636800   -1.323000
C      6.171300    0.626100   -0.411400
N      7.389300    0.216900    0.040400
C      7.252300   -0.797400    0.937400
C      6.034100   -1.353900    1.345100
N      4.806300   -0.964300    0.905200
C      4.909500    0.057700    0.003500
