29

C      6.081000    1.031000    0.384300
C      6.030100   -0.325600    0.135300
C      4.668200   -0.582900    0.000900
C      3.950500   -1.762700   -0.296800
C      4.553100   -2.961100   -0.543500
S      3.345000   -4.098600   -0.967700
C      2.085900   -2.920600   -0.813700
C      2.522800   -1.687100   -0.369600
C      1.673500   -0.534100   -0.138800
C      0.164400   -0.424500   -0.111000
C     -0.747000   -1.489700   -0.140300
N     -2.109200   -1.415100   -0.152900
C     -2.693900   -0.198600   -0.094500
C     -1.924700    0.949500   -0.010300
C     -0.515300    0.827800   -0.000500
C      0.377400    1.907800    0.146800
C      0.068100    3.237000    0.297200
O      1.212500    3.966000    0.438900
C      2.259700    3.092000    0.381300
C      1.795500    1.811700    0.201800
C      2.530900    0.629900    0.081000
C      3.935100    0.566100    0.158400
O      4.829600    1.580400    0.397200
C     -4.171300   -0.188300   -0.116800
C     -4.883800   -1.178800   -0.819300
C     -6.281300   -1.185400   -0.860800
C     -7.001400   -0.200300   -0.193000
C     -6.325100    0.785800    0.518800
C     -4.926300    0.789800    0.557600
