28

C     -6.036200    0.559800    0.764800
C     -5.623900   -0.504300   -0.009800
C     -4.230700   -0.434500    0.003200
C     -3.274100   -1.281700   -0.630300
C     -3.571500   -2.366600   -1.401100
S     -2.100900   -3.073100   -1.947300
C     -1.140600   -1.892500   -1.125400
C     -1.902800   -0.967900   -0.441500
C     -1.391300    0.102900    0.313400
C     -0.052500    0.444800    0.523200
O      1.050100   -0.194600    0.035000
C      2.162700    0.466100    0.479600
C      1.768300    1.536200    1.258200
C      0.348000    1.532500    1.293300
C     -0.629900    2.342200    1.900400
C     -1.986700    2.037700    1.717900
C     -2.378900    0.935100    0.937000
C     -3.765100    0.631600    0.756000
N     -4.921700    1.233400    1.218700
C      3.435500   -0.090100    0.046600
C      3.533900   -1.237300   -0.779500
C      4.758400   -1.797700   -1.214200
C      6.006800   -1.264300   -0.864500
C      5.985600   -0.115500   -0.039300
N      7.071200    0.538400    0.401200
S      6.518900    1.800500    1.321800
N      4.881200    1.577800    1.205400
C      4.678700    0.493700    0.432600
