28

C     -5.514100    2.964900   -0.124200
C     -5.977900    1.669300   -0.105200
C     -4.893700    0.772600   -0.037400
C     -5.000600   -0.657300   -0.000800
C     -6.169800   -1.362500   -0.026200
S     -5.812300   -3.043500    0.035700
C     -4.111000   -2.751600    0.093400
C     -3.801400   -1.406100    0.067300
C     -2.475300   -0.901200    0.104500
C     -1.285700   -1.674800    0.173500
C     -0.038500   -1.024300    0.201900
C      1.308200   -1.476600    0.270600
C      2.140800   -0.373700    0.248600
N      1.324400    0.733300    0.208800
C     -0.001300    0.365400    0.163100
C     -1.153600    1.162200    0.097300
C     -2.414600    0.523400    0.066100
C     -3.618000    1.320500   -0.003400
S     -3.805100    3.053000   -0.060100
C      3.584900   -0.284300    0.322700
C      4.345600   -0.894800    1.347500
C      5.770600   -0.793500    1.451600
C      6.579100   -0.078900    0.541700
C      5.826200    0.507300   -0.476400
C      6.400900    1.237800   -1.486700
S      5.217800    1.798500   -2.599300
C      3.935300    1.053600   -1.727200
C      4.388600    0.415300   -0.595100
