27

C     -5.336100    1.920800   -0.917400
C     -5.538400    0.575000   -0.646600
C     -4.266100    0.063200   -0.398700
C     -3.818500   -1.249000   -0.065100
N     -4.664500   -2.265200    0.065400
S     -3.649400   -3.557900    0.456300
N     -2.140000   -2.796000    0.452800
C     -2.427000   -1.535900    0.146800
C     -1.426600   -0.522500    0.033600
C     -1.846200    0.749500   -0.287800
O     -0.787300    1.604100   -0.359600
C      0.333000    0.854000   -0.077300
C      1.657700    1.343900   -0.041400
C      2.724800    0.466800    0.267600
C      4.113100    0.881700    0.348900
C      5.029000    0.743400    1.376400
N      6.295000    1.241600    1.133500
C      6.327200    1.760900   -0.073200
S      4.868600    1.685000   -0.969900
C      2.304800   -0.849400    0.506400
C      3.086300   -1.945600    0.797700
O      2.306700   -3.063100    0.956300
C      1.001200   -2.692600    0.752100
C      0.989700   -1.362900    0.473500
C     -0.058000   -0.458200    0.166900
C     -3.328100    1.049000   -0.512200
N     -3.982100    2.199700   -0.832600
