28

C      6.402400   -2.214900   -1.051800
C      6.686200   -0.867500   -0.914100
C      5.444400   -0.293300   -0.658900
C      5.042900    1.045200   -0.423200
N      5.918700    2.044000   -0.416700
S      4.953000    3.394600   -0.097900
N      3.428500    2.674400    0.026300
C      3.673100    1.384200   -0.180600
C      2.627400    0.389200   -0.162600
C      1.238800    0.583400    0.063700
C      0.449700    1.710200    0.333700
N     -0.889100    1.604500    0.512600
C     -1.502500    0.402400    0.417000
C     -0.797100   -0.768300    0.173600
C      0.588300   -0.657700   -0.009100
S      1.691700   -1.959800   -0.336300
C      3.002700   -0.907800   -0.388300
C      4.479200   -1.259300   -0.647900
O      5.063400   -2.463800   -0.891900
C     -2.943900    0.420100    0.642800
C     -3.574200    1.168500    1.680500
C     -4.990000    1.190800    1.941600
C     -5.942800    0.473900    1.187900
C     -5.322100   -0.232400    0.167400
C     -5.963400   -1.003200   -0.767000
N     -4.993500   -1.492100   -1.613800
C     -3.747600   -1.041200   -1.226000
C     -3.916600   -0.266800   -0.101400
