30

Si    -2.216200   -4.000400    1.094700
C     -0.496800   -3.526300    0.576700
C     -0.381400   -2.189100    0.458000
C      0.837700   -1.468800    0.257100
C      2.170600   -1.870300    0.025600
C      2.935200   -0.716200   -0.057500
N      2.098000    0.358800    0.161200
C      0.821800   -0.092400    0.332500
C     -0.377800    0.664500    0.531300
S     -0.432600    2.351000    0.700200
C     -2.160900    2.359500    0.707300
C     -3.009600    3.506900    0.806100
C     -4.408000    3.415800    0.707100
C     -4.814400    2.118800    0.456600
C     -6.117900    1.760700    0.204800
N     -6.125800    0.411300   -0.089200
C     -4.841800   -0.095100   -0.035000
C     -4.047900    0.943400    0.356800
C     -2.624400    1.049800    0.560700
C     -1.624600    0.044400    0.612300
C     -1.651800   -1.408200    0.699500
C     -2.661100   -2.189200    1.135600
C      4.334000   -0.562400   -0.284400
S      5.552100   -1.421700    0.601600
C      6.865400   -0.627000   -0.218300
C      6.328100    0.212500   -1.126200
C      6.701500    1.135500   -2.133000
C      5.508600    1.627200   -2.705700
N      4.381500    1.060100   -2.113300
C      4.951800    0.244700   -1.176100
