25

C      7.329900    1.286100    0.065900
C      6.736600    0.070400    0.313600
C      5.305400    0.117000    0.213400
C      4.338900   -0.891000    0.389300
C      2.986700   -0.600600    0.237000
N      1.877100   -1.401800    0.355700
C      0.728100   -0.685200    0.114800
C     -0.612600   -1.095100    0.125900
C     -1.610300   -0.142700   -0.150300
C     -1.232900    1.176900   -0.438500
C      0.112500    1.572000   -0.448800
C      1.114000    0.623800   -0.165300
C      2.541500    0.674500   -0.089100
C      3.499800    1.680300   -0.264800
C      4.863700    1.400500   -0.114500
S      6.182000    2.495700   -0.289000
C     -3.013400   -0.533900   -0.150600
C     -3.587500   -1.502900   -1.019400
C     -4.978900   -1.884400   -1.016600
C     -5.950800   -1.345200   -0.142900
C     -5.368700   -0.409200    0.699800
C     -5.990600    0.310500    1.684100
O     -5.075800    1.116300    2.306200
C     -3.862700    0.902800    1.708000
C     -3.995500   -0.022200    0.703600
