20

C     -5.333200    0.920800    0.438800
C     -4.951700   -0.345700    0.820300
C     -3.542800   -0.443700    0.652800
C     -2.597800   -1.458700    0.867300
C     -1.250200   -1.223600    0.593800
N     -0.155600   -2.061200    0.725800
C      0.959500   -1.373200    0.329700
C      2.354000   -1.475000    0.165500
C      2.728000   -0.227000   -0.317600
O      1.627300    0.599200   -0.444800
C      0.566200   -0.141200   -0.038300
C     -0.823800    0.018900    0.105200
C     -1.759900    1.033400   -0.110400
C     -3.103400    0.786800    0.166400
N     -4.208200    1.596900    0.045300
C      4.041100    0.244900   -0.667600
C      4.375100    1.498600   -1.146900
N      5.716200    1.713500   -1.412400
C      6.385800    0.618700   -1.131200
S      5.466700   -0.703700   -0.544600
