32

C     -6.984300    1.860300   -0.496300
C     -6.861100    0.646700    0.140500
C     -5.478800    0.317200    0.177000
C     -4.740200   -0.752500    0.696100
C     -3.324800   -0.746800    0.549800
C     -2.489300   -1.754600    1.077400
C     -2.888300   -2.864500    1.788200
N     -1.757000   -3.570400    2.122200
C     -0.642700   -2.925600    1.638600
C     -1.068300   -1.791600    0.982400
C     -0.260200   -0.840900    0.324500
C      1.188900   -0.956800    0.280800
C      2.034400   -0.055900   -0.388900
C      3.473400   -0.176100   -0.446600
C      4.221600   -0.461400   -1.621500
C      5.655400   -0.598300   -1.665000
C      6.500000   -0.467100   -0.539600
C      5.753000   -0.191100    0.597300
C      6.252700    0.001800    1.859200
N      5.174800    0.258800    2.680600
C      4.001800    0.229600    1.955500
C      4.332600   -0.054700    0.652200
C      1.274500    0.930400   -1.018100
C      1.790400    1.951300   -1.781500
N      0.731800    2.675400   -2.258900
C     -0.453100    2.133400   -1.808200
C     -0.166400    1.067500   -0.982100
C     -1.088600    0.211400   -0.276800
C     -2.589500    0.282700   -0.127100
C     -3.390000    1.351100   -0.597800
C     -4.790600    1.347100   -0.449500
N     -5.726700    2.278000   -0.842800
