17

C      4.887300   -0.249500    0.158700
C      4.233400    0.487500   -0.803100
C      2.844700    0.327000   -0.556100
C      1.655000    0.787000   -1.137100
C      0.409500    0.408700   -0.604600
C     -0.942800    0.691500   -0.946600
C     -1.751600    0.029600   -0.048500
C     -3.294900    0.029600   -0.010600
C     -4.166600   -0.623800    0.877900
N     -5.448800   -0.382600    0.589300
O     -5.421400    0.452400   -0.519300
C     -4.131300    0.692400   -0.869400
N     -0.941200   -0.645000    0.826700
C      0.379600   -0.430900    0.510200
C      1.548600   -0.901000    1.105200
C      2.756200   -0.505800    0.551200
O      3.996200   -0.856800    0.986500
