17

C     -4.889900   -0.292000   -0.360600
C     -4.189000   -0.597600    0.784400
C     -2.818000   -0.392500    0.481300
C     -1.601800   -0.511600    1.166000
C     -0.427300   -0.203600    0.487400
O      0.830700   -0.264900    0.999300
C      1.687100    0.117500    0.004600
C      3.236300    0.196200    0.147100
C      3.886300   -0.122600    1.320800
S      5.577500    0.076900    1.116500
C      5.301400    0.566900   -0.505000
N      4.047800    0.591900   -0.901100
C      0.975100    0.421900   -1.139300
C     -0.394600    0.217300   -0.837300
C     -1.610300    0.336600   -1.522500
C     -2.784700    0.028800   -0.844300
O     -4.044600    0.089300   -1.354300
