21

C     -5.493100   -0.995500    1.121100
C     -5.595400    0.328700    0.408400
C     -4.369000    0.739000    0.055400
C     -3.966800    1.951800   -0.647500
C     -2.656500    2.174000   -0.906100
C     -1.742800    1.176400   -0.460000
N     -0.389600    1.245300   -0.630300
C      0.198600    0.112400   -0.089300
C     -0.816000   -0.664600    0.459000
C     -2.026900    0.002100    0.212100
C     -3.389100   -0.261400    0.498800
C     -4.014100   -1.270000    1.115500
C      1.600700   -0.046300   -0.138000
C      2.318700   -0.569000    0.877100
C      3.758900   -0.671300    0.599000
N      4.590100   -1.157700    1.536000
C      5.895800   -1.211200    1.185500
C      6.397400   -0.802400   -0.048600
C      5.514400   -0.301300   -1.002700
C      4.170800   -0.235700   -0.669200
Si     2.691800    0.350300   -1.628500
