26

C      4.925300    0.452800    1.163300
C      5.243300   -0.297200   -0.096000
C      4.099600   -0.623900   -0.713300
C      3.927400   -1.465200   -1.877100
C      2.680400   -1.814100   -2.250300
C      1.571900   -1.273900   -1.512800
S     -0.027000   -1.744500   -1.846200
C     -0.726900   -0.654700   -0.687300
C      0.331700    0.083800   -0.137000
C      1.637600   -0.363800   -0.458500
C      2.956000   -0.079000    0.032600
C      3.422900    0.484700    1.155700
C     -0.049700    1.206100    0.677000
C      0.693300    2.248100    1.152000
N     -0.185200    3.050100    1.845100
C     -1.464300    2.543400    1.741400
C     -1.410300    1.395900    0.974700
C     -2.517100    0.630300    0.565400
C     -3.882500    0.910900    0.958200
C     -4.986500    0.167400    0.517400
C     -4.608900   -0.865000   -0.335500
C     -5.555400   -1.707800   -0.865400
S     -4.838400   -2.898600   -1.860000
C     -3.258500   -2.280400   -1.573000
C     -3.247000   -1.174200   -0.751600
C     -2.106500   -0.439400   -0.326300
