25

C     -5.700400    2.596200    0.254400
C     -6.164500    1.297400    0.280600
C     -5.020600    0.462400    0.228300
C     -4.747500   -0.922900    0.219500
C     -3.412500   -1.431300    0.157000
C     -2.282900   -0.583500    0.100000
C     -2.511800    0.779500    0.106900
N     -1.336600    1.470200    0.049000
C     -0.285900    0.572200   -0.000500
C      1.102700    0.776200   -0.068500
C      1.989000   -0.330900   -0.103300
C      3.444900   -0.155400   -0.176400
C      4.303300   -0.752100    0.761800
C      5.686900   -0.565100    0.696800
C      6.237700    0.225300   -0.308200
C      5.406400    0.827700   -1.248400
C      4.022900    0.639600   -1.181600
C      1.386000   -1.626200   -0.069300
N      2.016100   -2.822300   -0.100700
S      0.840700   -4.008300   -0.045500
N     -0.542700   -3.070200    0.025200
C     -0.055900   -1.838600   -0.000800
C     -0.885500   -0.676700    0.033600
C     -3.944700    1.329000    0.174000
O     -4.340400    2.623100    0.189100
