27

C     -3.731400   -2.193700    1.080700
C     -4.533900   -1.035900    0.570900
C     -3.700200   -0.070800    0.159400
C     -4.039200    1.265700   -0.245900
C     -3.050600    2.163800   -0.392900
C     -1.643700    1.763100   -0.218400
C     -0.590000    2.671300   -0.180500
C     -0.672300    4.041500   -0.254500
N      0.607600    4.530100   -0.164400
C      1.502200    3.488700   -0.034300
C      0.784300    2.312900   -0.011100
C      1.259100    0.984900    0.056600
C      2.593100    0.607600    0.303100
N      3.689700    1.336800    0.713600
C      4.790000    0.538500    0.848200
C      4.408600   -0.739800    0.527400
C      3.016600   -0.717900    0.198900
C      2.085000   -1.693500   -0.239400
C      2.555300   -3.004900   -0.486100
C      1.715700   -3.972800   -1.025100
C      0.413000   -3.633900   -1.348800
C     -0.059200   -2.342300   -1.085900
C      0.724200   -1.339700   -0.460300
C      0.239700   -0.014200   -0.150300
C     -1.183100    0.400500   -0.082400
C     -2.311100   -0.516300    0.280300
C     -2.321500   -1.714900    0.892100
