29

Si    -1.830900   -3.155900    2.747100
C     -0.395600   -2.335600    1.901200
C     -0.756000   -1.206600    1.251500
C      0.174600   -0.358000    0.459100
C      1.560600   -0.682500    0.378100
C      2.536700    0.034000   -0.356100
C      3.949200   -0.368900   -0.378800
C      4.784600   -0.226300   -1.486200
C      6.108800   -0.656800   -1.408900
C      6.573100   -1.225600   -0.231900
C      5.686200   -1.347700    0.820600
N      4.396400   -0.945800    0.769500
C      2.032000    1.175900   -1.033200
N      2.751800    2.039900   -1.774200
S      1.717200    3.195100   -2.331900
N      0.305000    2.664400   -1.681100
C      0.553400    1.552800   -0.962800
C     -0.386500    0.771000   -0.205500
C     -1.828700    1.113000   -0.097500
N     -2.225100    2.207800   -0.779200
C     -3.496500    2.635500   -0.727800
C     -4.453300    1.974300    0.043400
C     -5.840700    2.301900    0.229500
C     -6.482700    1.434200    1.071500
S     -5.436200    0.227200    1.635300
C     -4.062400    0.824800    0.753600
C     -2.722800    0.347100    0.681100
C     -2.204100   -0.869400    1.360400
C     -2.896600   -1.779600    2.080000
