22

C     -3.140100   -2.569700   -0.081000
C     -3.933100   -1.300600   -0.075400
C     -3.095300   -0.255400   -0.061500
C     -3.435900    1.140900   -0.051900
C     -2.452100    2.055500   -0.038300
C     -1.026000    1.653100   -0.032900
C     -0.026800    2.688300   -0.018200
N     -0.226700    4.019900   -0.008400
S      1.272800    4.731700    0.006700
N      2.255100    3.396100    0.001600
C      1.443800    2.328100   -0.012200
C      1.778500    0.972500   -0.021500
C      3.010400    0.293900   -0.019700
O      4.273300    0.710800   -0.008700
C      4.995500   -0.460500   -0.014100
C      4.160300   -1.574300   -0.028400
C      2.857600   -1.057500   -0.031900
C      1.422300   -1.467600   -0.044000
C      0.770000   -0.050600   -0.036200
C     -0.603100    0.268100   -0.041900
C     -1.707400   -0.721200   -0.056900
C     -1.722900   -2.065700   -0.068100
