23

C      6.181400   -0.986700   -0.695000
C      6.204200    0.253100   -0.084800
C      4.860100    0.645600    0.148000
C      4.203200    1.754700    0.713800
C      2.781900    1.823900    0.789700
C      1.932700    0.794500    0.307500
C      0.508400    0.632000    0.269300
S     -0.859300    1.581600    0.777300
C     -1.962200    0.376100    0.215800
C     -1.301200   -0.707000   -0.337300
C      0.116600   -0.547600   -0.300400
S      1.475800   -1.517200   -0.818100
C      2.525100   -0.316500   -0.257300
C      4.075100   -0.380300   -0.334300
N      4.868900   -1.363900   -0.842300
C     -3.393400    0.546800    0.341900
S     -4.185300    1.934100    1.048800
C     -5.785400    1.313000    0.789700
C     -5.660600    0.110700    0.193700
C     -6.463500   -0.929700   -0.295400
C     -5.559900   -1.877600   -0.789100
O     -4.231700   -1.520500   -0.652100
C     -4.372200   -0.304300   -0.048700
