22

C      5.556800   -0.460500    0.419900
C      5.179600    0.619000   -0.337400
C      3.753800    0.755600   -0.444800
C      2.999500    1.732300   -1.132900
C      1.603100    1.700800   -1.122700
C      0.908700    0.709100   -0.436800
C     -0.510200    0.723400   -0.459100
C     -1.341800   -0.217600    0.195000
C     -2.805300   -0.157400    0.134900
C     -3.484000   -0.002800   -1.082300
C     -4.875900    0.072600   -1.112600
C     -5.563500   -0.003100    0.085300
N     -4.961100   -0.147300    1.282100
C     -3.606500   -0.227900    1.276900
C     -0.648500   -1.234000    0.913500
N     -1.213200   -2.240300    1.605000
S      0.013300   -3.143500    2.243500
N      1.322800   -2.311700    1.681600
C      0.871800   -1.274700    0.952800
C      1.648800   -0.288800    0.267900
C      3.070700   -0.252400    0.253800
S      4.214000   -1.318200    1.007900
