23

C     -4.487200    1.751300    0.765700
C     -4.898100    0.448200    0.142500
C     -3.802800   -0.255000   -0.175000
C     -3.709800   -1.553100   -0.788800
C     -2.494100   -2.082000   -1.022000
C     -1.243000   -1.362000   -0.663100
C     -0.008500   -1.959700   -0.928800
C      1.190700   -1.294600   -0.596600
C      2.483000   -1.890600   -0.860900
N      2.722800   -3.088900   -1.425500
S      4.372400   -3.267300   -1.486800
N      4.872700   -1.839700   -0.802900
C      3.757200   -1.158700   -0.495800
C      3.652400    0.105300    0.101900
C      4.703100    0.996200    0.539200
C      4.095500    2.081200    1.045000
C      2.584800    1.999600    0.984900
C      2.376600    0.650100    0.342100
C      1.165800   -0.001500    0.016000
C     -0.087000    0.582100    0.274800
C     -1.279800   -0.078700   -0.055400
C     -2.611100    0.496800    0.198300
C     -2.985700    1.664400    0.746100
