28

C      5.405700    0.637400    0.062400
C      5.587600   -0.822800   -0.221000
C      4.385100   -1.396900   -0.356700
C      4.082000   -2.796200   -0.483300
C      2.795200   -3.178100   -0.410700
C      1.692900   -2.197800   -0.276200
N      0.471500   -2.752000   -0.176000
C     -0.582200   -1.902500   -0.069300
C     -0.566600   -0.500700   -0.100300
C      0.747200    0.017700   -0.406400
C      0.614200    1.357000   -0.853600
C      1.536600    2.121900   -1.527200
O      1.004300    3.333300   -1.857100
C     -0.297700    3.318800   -1.458600
C     -0.593700    2.107600   -0.883300
C     -1.847400    1.663300   -0.428200
C     -3.013000    2.451300   -0.489400
C     -4.208800    1.939600   -0.020200
C     -4.247700    0.689500    0.593400
C     -5.470300    0.258900    1.137000
C     -5.561700   -0.927400    1.854600
C     -4.419400   -1.678100    2.063100
C     -3.201700   -1.263500    1.510600
C     -3.066900   -0.106300    0.698600
C     -1.821100    0.320700    0.066600
C      1.911100   -0.808700   -0.326700
C      3.328700   -0.390200   -0.249000
C      3.909100    0.779600    0.070300
