31

C     -6.812300   -1.783100    0.671000
C     -7.498500   -0.465300    0.451200
C     -6.610700    0.416000   -0.026700
C     -6.788100    1.803400   -0.366200
C     -5.710600    2.481000   -0.805600
C     -4.395800    1.846500   -0.951500
C     -4.153600    0.539000   -0.672200
C     -2.818800    0.002600   -0.855500
C     -1.565600    0.687600   -0.362500
C     -0.477000   -0.280200   -0.779500
C     -1.051400   -1.314200   -1.423300
C     -2.480500   -1.141500   -1.469700
C      0.955100   -0.091900   -0.511000
C      1.926700   -1.081600   -0.798600
C      3.311700   -0.933800   -0.552000
C      3.874900    0.228000    0.004900
C      5.299400    0.347100    0.255700
S      6.251800    1.604300   -0.487000
C      7.739900    1.062900    0.228900
C      7.467500   -0.031700    0.966400
N      8.353200   -0.777400    1.687300
C      7.513300   -1.756000    2.217300
C      6.174400   -1.569700    1.809500
C      6.147600   -0.421000    0.976400
C      2.965700    1.269200    0.342200
N      3.264700    2.449500    0.915000
S      1.850100    3.283500    1.083700
N      0.775900    2.196800    0.455400
C      1.471300    1.108400    0.076000
C     -5.303000   -0.221100   -0.171500
C     -5.401100   -1.495700    0.239900
