30

C     -5.679500    2.616400   -1.374300
C     -6.775900    1.598500   -1.220500
C     -6.242700    0.435800   -0.819600
C     -6.880900   -0.823600   -0.530600
C     -6.098400   -1.848500   -0.134600
C     -4.643300   -1.712900   -0.000900
C     -3.975900   -0.557100   -0.256200
C     -2.518300   -0.514700   -0.105000
C     -1.748800   -0.515200   -1.220100
C     -0.289700   -0.468200   -1.192800
C      0.424200   -0.436100   -0.044600
C      1.890700   -0.351200   -0.146700
C      2.654600   -1.393800   -0.666900
C      4.041800   -1.257700   -0.753900
C      4.655500   -0.086800   -0.304800
N      3.921400    0.937600    0.214600
C      2.574900    0.785900    0.273200
C      6.124400    0.111500   -0.372800
C      6.744000    1.250600    0.146300
C      8.127800    1.386500    0.048300
C      8.868000    0.387900   -0.565800
C      8.190600   -0.709800   -1.059700
N      6.851100   -0.872000   -0.977300
C     -0.326300   -0.449500    1.214000
C      0.204300   -0.442200    2.454500
Si    -1.129100   -0.438100    3.763700
C     -2.397800   -0.461700    2.398000
C     -1.813300   -0.475400    1.182500
C     -4.796200    0.577000   -0.681900
C     -4.450400    1.836100   -0.995500
