28

C      5.827900    1.903600   -0.834100
C      6.624900    1.019200    0.084600
C      5.799700    0.148300    0.679500
C      6.084300   -0.887000    1.640900
C      5.052000   -1.627000    2.092700
C      3.674700   -1.408500    1.634000
C      3.345300   -0.457900    0.724700
C      1.946000   -0.323800    0.334400
C      0.915300    0.200200    1.149500
C     -0.455100    0.325300    0.727500
C     -0.942200   -0.052900   -0.553300
C     -2.317100    0.094600   -0.972800
C     -2.965300    0.279000   -2.172200
C     -4.347800    0.353200   -1.873500
C     -4.499600    0.219100   -0.498600
O     -3.237400    0.068700    0.033100
C     -5.659200    0.222200    0.321400
C     -5.733700    0.060900    1.822600
C     -7.209900    0.152400    2.081900
C     -7.859200    0.334100    0.924600
C     -6.907500    0.377000   -0.157000
C      0.090200   -0.576000   -1.340700
C      0.039200   -1.098900   -2.608500
O      1.283800   -1.513000   -2.996000
C      2.140300   -1.270700   -1.959800
C      1.454800   -0.701600   -0.917700
C      4.432100    0.370400    0.218900
C      4.426700    1.386800   -0.657000
