31

C      6.695500   -0.113200    1.426600
C      7.339300   -0.194700    0.070700
C      6.394800   -0.427800   -0.850100
C      6.518000   -0.567500   -2.278200
C      5.395300   -0.799900   -2.983000
C      4.079700   -0.919500   -2.342700
C      3.886100   -0.786000   -1.002900
C      2.563200   -0.953500   -0.473500
C      2.147700   -1.776000    0.556600
C      0.755500   -1.656800    0.840100
C      0.108500   -0.744000    0.026500
S      1.231800   -0.043600   -1.072500
C     -1.303000   -0.388200    0.043200
S     -1.899000    1.016600   -0.773200
C     -3.527000    0.754900   -0.305400
C     -4.567200    1.668500   -0.693400
S     -4.843300    2.119100   -2.340500
C     -6.156500    3.161400   -1.946500
C     -6.379300    3.156500   -0.599200
S     -7.591900    4.038500    0.396800
C     -6.835100    3.224500    1.760400
C     -5.767500    2.371800    1.459000
C     -5.487400    2.316100    0.066300
C     -3.630800   -0.377700    0.469500
N     -4.812800   -0.832900    0.983200
C     -4.635800   -1.974800    1.694500
C     -3.408900   -2.612800    1.893300
N     -2.215700   -2.185900    1.402700
C     -2.353400   -1.037600    0.670800
C      5.086800   -0.529300   -0.205600
C      5.242100   -0.338900    1.115200
