31

C      5.511400    2.462600   -1.649700
C      6.449900    2.163000   -0.513400
C      5.851900    1.320100    0.338300
C      6.341700    0.742700    1.564500
C      5.525100   -0.093400    2.235900
C      4.176600   -0.419800    1.756100
C      3.653700    0.095200    0.614200
C      2.331100   -0.299400    0.248500
S      1.006600    0.808800    0.456500
C     -0.176400   -0.301700   -0.158200
C      0.458100   -1.463700   -0.491100
Si    -0.066200   -3.127300   -1.204700
C      1.767900   -3.671100   -1.127000
C      2.551800   -2.689000   -0.630800
C      1.861800   -1.482200   -0.275800
C     -1.556200    0.060400   -0.228400
C     -1.939300    0.872000   -1.241000
C     -3.324800    1.287000   -1.451800
C     -4.346700    0.896800   -0.653400
C     -5.663800    1.340600   -0.987200
C     -6.775900    0.603100   -1.362900
N     -7.936000    1.314300   -1.604500
C     -7.702700    2.591100   -1.403000
S     -6.112500    3.007400   -0.922000
C     -4.013300    0.010500    0.469500
C     -4.881600   -0.470800    1.383700
Si    -4.016300   -1.538700    2.650100
C     -2.413700   -1.207200    1.756200
C     -2.603000   -0.409900    0.684400
C      4.510600    1.001400   -0.142500
C      4.295900    1.651000   -1.297000
