33

C     -7.590400   -0.580200    0.118500
C     -7.113000    0.668600    0.415600
C     -5.684900    0.762300    0.288200
C     -4.853900    1.858300    0.504600
N     -3.521100    1.771800    0.337100
C     -2.901000    0.648400   -0.043100
C     -3.682800   -0.526000   -0.286400
C     -2.912000   -1.647600   -0.681800
C     -3.397400   -2.902600   -0.978600
S     -2.172000   -4.016600   -1.419700
C     -0.954300   -2.835800   -1.222200
C     -1.466200   -1.617500   -0.829100
C     -0.655400   -0.476100   -0.598500
C      0.771600   -0.460500   -0.747700
C      1.569600    0.671200   -0.512400
C      3.027200    0.656500   -0.672600
C      3.574400    1.214200   -1.843500
C      4.946300    1.200700   -2.072000
C      5.797500    0.625700   -1.133800
C      5.293000    0.063500    0.047500
C      6.171000   -0.508200    0.983600
C      5.694900   -1.066400    2.168500
C      4.332900   -1.057100    2.435200
C      3.446900   -0.493300    1.514200
C      3.896300    0.075100    0.297600
C      0.869400    1.840000   -0.115500
N      1.433400    3.031300    0.153400
S      0.216300    4.060700    0.575400
N     -1.082700    3.060000    0.432400
C     -0.646300    1.844900    0.047600
C     -1.455500    0.660600   -0.195200
C     -5.092300   -0.444600   -0.112200
S     -6.337700   -1.637900   -0.311200
