29

C      6.803500   -1.361600   -1.537400
C      6.887300   -0.360100   -0.587500
C      5.563300    0.020600   -0.240100
C      4.958500    0.938400    0.623700
N      3.613600    1.087900    0.751700
C      2.749100    0.324400    0.019500
C      3.216600   -0.616300   -0.867700
S      2.029600   -1.463900   -1.683300
C      0.783700   -0.589000   -0.865900
C     -0.596600   -0.772800   -1.052900
C     -1.518900   -0.003300   -0.326700
C     -2.940500   -0.247700   -0.567400
C     -3.683500    0.376200   -1.603500
C     -5.074200    0.138000   -1.852500
C     -5.869300   -0.749400   -1.096500
C     -5.138100   -1.364400   -0.080400
C     -5.698800   -2.269500    0.786300
S     -4.542000   -2.844500    1.920500
C     -3.288600   -1.877800    1.247400
C     -3.737900   -1.132800    0.181200
C     -1.055500    0.966000    0.592200
C     -1.933300    1.777400    1.350800
C     -1.463600    2.729000    2.257200
C     -0.099400    2.899200    2.432000
C      0.795700    2.118800    1.701000
C      0.345000    1.147300    0.776400
C      1.294700    0.355900    0.035200
C      4.736700   -0.772400   -1.000100
N      5.473400   -1.605900   -1.782200
