24

C     -6.752400    0.582800    0.651700
C     -6.358700    1.113700   -0.558700
C     -4.955400    0.916900   -0.646800
C     -3.937400    1.197700   -1.567700
N     -2.627700    0.877700   -1.374000
C     -2.273300    0.251000   -0.228700
C     -0.964000   -0.144500    0.119200
N      0.295900   -0.101400   -0.416700
C      1.175600   -0.666300    0.478500
C      0.459000   -1.110400    1.579300
C     -0.899200   -0.757600    1.338900
S     -2.459100   -0.873200    2.108500
C     -3.141100   -0.095500    0.773200
C     -4.608600    0.277300    0.527200
O     -5.685200    0.069000    1.321300
C      2.593800   -0.790600    0.193600
C      3.286100   -2.023800    0.243600
C      4.679100   -2.170400   -0.056000
C      5.522000   -1.101800   -0.429400
C      4.839200    0.114600   -0.461900
C      5.460600    1.296100   -0.782500
S      4.364100    2.616400   -0.704900
C      3.057000    1.601000   -0.235000
C      3.434200    0.279300   -0.163800
