26

C     -6.202900    0.054800    0.189200
C     -5.810700   -0.836700    1.162400
C     -4.389300   -0.889400    1.154500
C     -3.429400   -1.588200    1.886800
N     -2.102600   -1.417000    1.634300
C     -1.661700   -0.574400    0.676400
C     -0.265200   -0.425600    0.445500
C      0.676600   -1.132500    1.187600
N      2.027100   -1.052000    1.034800
C      2.541400   -0.225100    0.091100
C      1.696400    0.532000   -0.711400
C      0.298800    0.432600   -0.535400
C     -0.625500    1.184100   -1.328100
N     -0.322900    2.053000   -2.308700
S     -1.759600    2.637700   -2.891700
N     -2.835200    1.818500   -1.930200
C     -2.103800    1.045000   -1.104100
C     -2.589800    0.164100   -0.101600
C     -3.952400   -0.016200    0.162800
N     -5.073400    0.545200   -0.409100
C      4.018800   -0.202900   -0.002800
C      4.736400    0.587600   -0.915600
C      6.133000    0.559600   -0.950000
C      6.797900   -0.265400   -0.063400
N      6.168700   -1.045400    0.833700
C      4.809300   -0.993700    0.839700
