25

C      5.907000   -1.466000   -1.396700
C      6.171300   -0.369300   -0.594900
C      4.927600    0.156900   -0.150400
C      4.495700    1.222100    0.658400
N      3.185400    1.503400    0.924200
C      2.218500    0.717100    0.383200
C      0.808000    0.756000    0.473500
C     -0.137000    1.553300    1.106000
N     -1.461300    1.278500    0.960000
C     -1.891500    0.232100    0.202700
C     -0.997800   -0.610700   -0.461300
C      0.345100   -0.307300   -0.294900
O      1.388900   -0.995500   -0.850800
C      2.503200   -0.360000   -0.428100
C      3.968600   -0.656300   -0.711700
N      4.543500   -1.631200   -1.459800
C     -3.345400    0.012600    0.103200
N     -3.793700   -1.052400   -0.667100
C     -5.123000   -1.336300   -0.819700
C     -6.193400   -0.651600   -0.265200
C     -5.806800    0.442300    0.529300
N     -6.660100    1.256800    1.170700
S     -5.732300    2.379000    1.962500
N     -4.217200    1.882800    1.528400
C     -4.351700    0.804100    0.734200
