31

C      6.300300    0.411500    1.829200
C      7.072500   -0.420600    0.991700
C      6.191800   -0.968600    0.028600
C      6.191100   -1.794700   -1.035900
S      4.558800   -1.889600   -1.621300
C      3.935600   -0.812500   -0.402300
C      2.520400   -0.485000   -0.310000
C      1.521500   -1.473500   -0.377200
C      0.163200   -1.121100   -0.297500
N     -0.945600   -1.932300   -0.335800
C     -2.062000   -1.168800   -0.223300
C     -3.497100   -1.698600   -0.213600
O     -3.889100   -2.990700   -0.308900
C     -5.247200   -2.975100   -0.253200
C     -5.711300   -1.683900   -0.123900
C     -4.565600   -0.838200   -0.097300
C     -4.268600    0.546500    0.006100
C     -5.371300    1.417600    0.119000
C     -5.181200    2.792000    0.218200
C     -3.894700    3.312700    0.203500
C     -2.783100    2.466900    0.093200
C     -2.908400    1.066000   -0.004700
C     -1.763000    0.182200   -0.115300
C     -0.333500    0.171700   -0.157600
C      0.648800    1.224400   -0.077700
N      0.348100    2.502200    0.071100
S      1.824000    3.268700    0.089100
N      2.839000    1.958200   -0.052900
C      2.067400    0.852500   -0.155500
C      4.974400   -0.422600    0.373300
N      4.960600    0.424200    1.446300
