22

C     -4.520900    0.905900    1.926900
C     -5.504300    0.373800    1.073000
C     -4.822600   -0.236800   -0.002800
C     -5.096900   -0.910100   -1.134800
S     -3.587000   -1.299900   -1.878600
C     -2.622700   -0.535300   -0.627500
C     -1.178700   -0.528500   -0.692400
C     -0.368600   -1.095400   -1.701400
C      0.969600   -0.834600   -1.327600
N      2.310200   -0.956500   -1.606100
C      2.968200   -0.345700   -0.600000
C      4.275100   -0.130100   -0.301800
S      5.622900   -0.602600   -1.178300
C      6.593600    0.150500    0.053800
C      5.878800    0.737000    1.091100
C      4.484700    0.564800    0.871500
S      2.892600    0.907300    1.539600
C      2.096100    0.153600    0.296900
C      0.887200   -0.154600   -0.164400
N     -0.359200    0.058800    0.265500
C     -3.488600   -0.024500    0.288000
N     -3.234800    0.662900    1.444900
