31

C      6.009600   -0.550200    2.083200
C      6.897800    0.020900    1.146600
C      6.113500    0.492200    0.066300
C      6.231000    1.123700   -1.118900
S      4.631300    1.301000   -1.778400
C      3.868200    0.504600   -0.436200
C      2.461800    0.257400   -0.340300
C      1.846500   -0.948600   -0.115300
C      0.400300   -0.873300   -0.045500
C     -0.044600    0.446500   -0.232200
S      1.317400    1.491600   -0.487100
C     -1.428200    0.768600   -0.199300
C     -2.000200    2.057700   -0.372800
C     -1.390200    3.274700   -0.611300
N     -2.360100    4.263100   -0.710900
C     -3.609200    3.717500   -0.540700
C     -3.367100    2.393600   -0.340000
C     -4.294900    1.365300   -0.113000
C     -5.682300    1.391400   -0.028100
C     -6.008300    0.074500    0.206900
O     -4.891700   -0.708500    0.262500
C     -3.788000    0.095800    0.060200
C     -2.394700   -0.288200    0.032500
C     -1.957700   -1.640800    0.220900
C     -2.806100   -2.759500    0.452100
C     -2.323600   -4.059800    0.627200
C     -0.964000   -4.299600    0.577800
C     -0.093500   -3.237400    0.354700
C     -0.566300   -1.911500    0.176400
C      4.832800    0.155900    0.446400
N      4.685900   -0.466900    1.654700
