29

Si    -1.049600    4.265100   -1.731600
C      0.382900    3.095400   -1.482700
C     -0.003100    1.955400   -0.868500
C      0.897100    0.860000   -0.442900
C      2.299900    1.018200   -0.464600
C      3.152600    0.074900    0.116200
C      2.581400   -1.021800    0.753700
C      1.191900   -1.191000    0.771600
C      0.313600   -0.309400    0.109300
C     -1.184800   -0.523100    0.105100
C     -1.808300   -1.814600    0.237700
C     -1.159200   -3.061800    0.037600
C     -1.799000   -4.293500    0.223000
C     -3.133300   -4.333900    0.594400
C     -3.836900   -3.144000    0.739500
C     -3.197200   -1.899600    0.537000
C     -3.980000   -0.721600    0.606700
C     -5.348600   -0.418100    0.878600
C     -5.491800    0.935200    0.708100
O     -4.312200    1.488700    0.343900
C     -3.377300    0.490500    0.287400
C     -2.018600    0.627300   -0.027000
C     -1.451300    1.881300   -0.567400
C     -2.139000    2.984000   -0.936600
C      4.605400    0.247100    0.101900
C      5.621200   -0.687000   -0.024800
C      6.861000   -0.006600    0.037100
C      6.582600    1.327900    0.212700
N      5.220800    1.471700    0.255500
