31

C      7.526000    1.040900    0.965300
C      7.818300   -0.227400    0.454500
C      6.659500   -0.914700    0.022900
C      6.473100   -2.139800   -0.513200
S      4.789100   -2.344900   -0.784600
C      4.389000   -0.765900   -0.186700
C      3.037600   -0.280300   -0.153100
C      2.535300    1.010500   -0.112600
C      1.151200    0.863500   -0.090900
C      0.128200    1.833400   -0.103900
C      0.246400    3.186500   -0.199400
N     -1.050400    3.630900   -0.314900
C     -1.925600    2.556100   -0.303900
C     -1.210900    1.396800   -0.079700
C     -1.713800    0.056100   -0.022100
C     -0.623100   -0.871100   -0.144400
C     -0.887700   -2.239600   -0.305500
C     -2.200500   -2.717100   -0.359600
C     -3.307500   -1.886400   -0.162000
C     -4.616700   -2.499900   -0.193700
C     -5.834900   -1.846700    0.077400
C     -5.588300   -0.539000    0.443400
C     -6.544300    0.326700    0.908300
N     -5.884300    1.470900    1.288100
C     -4.529100    1.325700    1.078700
C     -4.315200    0.113600    0.464200
C     -3.069400   -0.483500    0.087700
C      0.751200   -0.455100   -0.133800
N      1.949200   -1.141700   -0.180500
C      5.529000   -0.118800    0.225300
S      5.832700    1.506600    0.970000
