30

C      6.680700    1.735600   -1.243400
C      7.016800    0.534200   -0.613500
C      5.877200   -0.197300   -0.205300
C      5.739200   -1.382900    0.424900
S      4.060500   -1.684200    0.615200
C      3.590700   -0.200800   -0.161600
C      2.207800    0.162900   -0.328700
C      1.609800    1.268700   -0.903200
C      0.239500    1.056900   -0.766000
C     -0.829100    1.880500   -1.182400
C     -0.763200    3.082000   -1.819700
N     -2.076200    3.447400   -1.989100
C     -2.913800    2.476400   -1.459700
C     -2.147100    1.454400   -0.932700
C     -2.557300    0.262000   -0.293900
C     -3.911700   -0.142100   -0.055200
S     -5.429100    0.624500   -0.433200
C     -6.369100   -0.626900    0.246500
C     -5.594900   -1.635500    0.766300
C     -4.227700   -1.337000    0.583200
C     -3.147600   -2.179500    1.009400
C     -3.321900   -3.376200    1.646200
S     -1.789000   -4.061600    1.980900
C     -0.966600   -2.724900    1.258200
C     -1.813300   -1.754100    0.759800
C     -1.415900   -0.559200    0.119900
C     -0.071900   -0.132500   -0.130600
N      1.180300   -0.656200    0.123700
C      4.712200    0.494200   -0.550100
S      4.966400    2.080300   -1.394500
