32

C     -5.812300    1.440900    1.572300
C     -6.679000    0.445100    1.071700
C     -5.895500   -0.422600    0.272800
C     -5.995300   -1.535300   -0.482600
S     -4.407500   -1.894900   -1.099000
C     -3.681800   -0.522100   -0.332100
C     -2.281500   -0.210300   -0.453200
C     -1.223000   -1.026900    0.013000
C      0.221000   -0.752000   -0.065400
C      1.207500   -1.670600    0.416700
C      0.840700   -2.926200    0.983100
C      1.762300   -3.874400    1.416500
C      3.101300   -3.607300    1.278800
C      3.498600   -2.383800    0.739000
C      2.600400   -1.358500    0.327000
C      3.026200   -0.062800   -0.194000
C      4.382600    0.485700   -0.209500
S      5.851400   -0.133100    0.504900
C      6.822800    1.127900   -0.068000
C      6.083800    2.054200   -0.750900
C      4.689000    1.714600   -0.812800
C      3.648400    2.433200   -1.383100
N      2.385400    1.992400   -1.308000
C      2.062900    0.821000   -0.734200
C      0.694600    0.469900   -0.659200
C     -0.393500    1.269500   -1.139900
C     -0.361700    2.486300   -1.782000
O     -1.626000    2.905300   -2.084000
C     -2.486100    1.948800   -1.636700
C     -1.778000    0.938400   -1.037700
C     -4.638200    0.132300    0.362500
N     -4.503100    1.253500    1.132200
