27

C      6.194900   -0.479200   -0.064500
C      6.557500    0.876900   -0.180700
C      5.355500    1.619700   -0.226500
C      4.934800    2.894600   -0.326100
S      3.203700    2.870500   -0.302100
C      3.105000    1.127800   -0.157500
C      1.845900    0.435900   -0.084700
C      1.530800   -0.918700    0.030700
C      0.137800   -0.988100    0.054100
C     -0.779600   -2.077600    0.155300
C     -0.403200   -3.388100    0.258300
S     -1.810600   -4.394700    0.358900
C     -2.894200   -3.046800    0.261800
C     -2.178600   -1.886100    0.157300
C     -2.769400   -0.591400    0.058400
C     -4.081600   -0.130900    0.037200
N     -5.284800   -0.757100    0.103900
C     -6.347000    0.080500    0.048600
C     -6.288200    1.467900   -0.066200
C     -5.048700    2.103600   -0.134200
C     -3.948200    1.258000   -0.078700
O     -2.629200    1.634000   -0.126400
C     -1.915500    0.479400   -0.040500
C     -0.397600    0.264100   -0.042000
N      0.640100    1.136000   -0.126900
C      4.375100    0.652500   -0.134500
N      4.810400   -0.640300   -0.033700
