32

C      6.434000    0.288600   -1.361400
C      7.304500   -0.120400   -0.344700
C      6.467200   -0.481400    0.720700
C      6.551500   -0.950100    1.981600
S      4.931700   -1.111100    2.587100
C      4.191500   -0.538200    1.112800
C      2.746500   -0.417600    0.937100
C      2.138400    0.032400   -0.218000
C      0.725200    0.108200   -0.275600
C      0.080900    0.569900   -1.458700
N      0.718100    0.959000   -2.579200
S     -0.432000    1.405300   -3.667900
N     -1.786400    1.128200   -2.775800
C     -1.422700    0.667000   -1.564400
C     -2.313800    0.299900   -0.476900
C     -3.791300    0.392400   -0.573000
C     -4.529800    0.838800   -1.705000
C     -5.931700    0.908300   -1.746600
C     -6.682300    0.531600   -0.647800
C     -6.026500    0.086700    0.488800
C     -4.610800    0.019100    0.523700
C     -3.958200   -0.441500    1.703100
N     -4.581400   -0.834000    2.831300
S     -3.416900   -1.276100    3.907200
N     -2.073500   -0.992600    2.998800
C     -2.457600   -0.532900    1.793800
C     -1.581000   -0.163400    0.701200
C     -0.105600   -0.257900    0.802900
C      0.646100   -0.696300    1.911700
N      2.003200   -0.781300    1.999900
C      5.194200   -0.258500    0.250000
O      5.095400    0.216100   -1.025100
