29

C      6.379400   -2.004200   -0.089800
C      7.224900   -0.876100   -0.009400
C      6.388700    0.262600    0.097600
C      6.447300    1.603800    0.207600
S      4.814000    2.192000    0.281100
C      4.104600    0.605600    0.160700
C      2.663000    0.335800    0.160300
C      1.697300    1.335500    0.257700
C      0.336000    0.991000    0.249900
C     -0.681700    1.952400    0.344900
C     -2.029800    1.617800    0.337700
N     -2.905100    2.624500    0.434300
C     -4.224700    2.339000    0.430800
C     -4.767700    1.067200    0.333800
C     -6.182200    0.910400    0.342300
C     -6.830400   -0.327200    0.249800
C     -5.987000   -1.449700    0.144100
N     -6.412400   -2.717800    0.045700
S     -5.058000   -3.663200   -0.053100
N     -3.875100   -2.508500    0.024400
C     -4.479100   -1.310200    0.132700
C     -3.838000   -0.010000    0.230500
C     -2.418700    0.265800    0.231800
C     -1.387200   -0.704800    0.135800
C     -0.025000   -0.353700    0.144100
C      1.007700   -1.286600    0.051200
N      2.325700   -0.976500    0.056800
C      5.124900   -0.281900    0.071700
N      5.037100   -1.640800   -0.039400
