31

C     -6.513500   -0.253300    1.997700
C     -7.265700   -1.157900    1.236300
C     -6.396200   -1.585600    0.221100
C     -6.368800   -2.409300   -0.848100
S     -4.777900   -2.304800   -1.553700
C     -4.221800   -1.146800   -0.391800
C     -2.886700   -0.598900   -0.395400
C     -1.730800   -1.389000   -0.227500
C     -0.390800   -0.887600   -0.221900
C      0.636100   -1.799400   -0.039000
C      1.970500   -1.394000   -0.019400
C      2.343300   -0.039000   -0.183400
C      1.310500    0.907300   -0.371300
S      1.992400    2.495500   -0.547300
C      3.611400    1.979900   -0.386300
C      4.788600    2.790400   -0.430100
C      6.077200    2.248300   -0.283900
C      6.034900    0.878700   -0.100400
C      7.148600    0.091100    0.069200
N      6.715200   -1.211500    0.221600
C      5.335200   -1.268300    0.151600
C      4.923800    0.018200   -0.046100
C      3.614700    0.609200   -0.200100
C     -0.060300    0.502600   -0.394100
C     -1.224600    1.301500   -0.573100
C     -1.263100    2.663600   -0.774800
S     -2.854700    3.277700   -0.968100
C     -3.541500    1.724800   -0.786600
C     -2.583200    0.759200   -0.571200
C     -5.229500   -0.903700    0.469900
O     -5.219900   -0.067200    1.544900
