28

C      5.908000   -0.575400    2.208400
C      6.532200   -0.921000    1.004000
C      5.621200   -0.977200   -0.077800
C      5.760000   -1.253500   -1.393900
S      4.206900   -1.119700   -2.130900
C      3.432300   -0.719500   -0.645700
C      2.010900   -0.466700   -0.558800
C      1.393700    0.646200   -1.142500
C      0.004200    0.918800   -1.065700
C     -0.442700    2.046600   -1.751100
C     -1.788000    2.412800   -1.779200
C     -2.763100    1.707100   -1.080200
C     -4.114800    2.204400   -1.187900
C     -5.235800    1.670700   -0.531700
C     -4.844200    0.618500    0.267500
C     -5.698600   -0.064100    1.094000
N     -4.934900   -0.981600    1.769000
C     -3.613700   -0.868200    1.387100
C     -3.518600    0.084300    0.400200
C     -2.353300    0.555500   -0.303500
C     -0.947900    0.114100   -0.351300
C     -0.344800   -1.092700    0.203100
N     -0.976300   -2.109700    0.812700
S      0.142400   -3.234400    1.256100
N      1.514700   -2.531500    0.676200
C      1.149100   -1.371000    0.101300
C      4.338800   -0.671200    0.378300
S      4.173700   -0.286300    2.135500
