27

C     -5.038000    0.251400   -2.017000
C     -5.964300    0.425300   -0.965400
C     -5.220900    0.468100    0.239500
C     -5.379100    0.607700    1.571500
S     -3.797300    0.546400    2.297200
C     -2.992700    0.316300    0.780700
C     -1.562100    0.182300    0.665600
C     -0.637000    1.190100    1.024700
C      0.794100    1.072100    0.892500
C      1.624900    2.121800    1.268500
N      2.971500    2.144700    1.194400
C      3.536400    1.016800    0.703500
C      4.924600    0.846100    0.549800
O      6.013800    1.632200    0.801800
C      7.084900    0.880600    0.433100
C      6.727100   -0.354900   -0.045700
C      5.312500   -0.346700    0.042900
S      3.947400   -1.354600   -0.283500
C      2.845300   -0.125700    0.282800
C      1.440400   -0.100300    0.378100
C      0.509400   -1.097100    0.034600
C      0.732100   -2.356700   -0.470000
N     -0.490400   -2.976400   -0.622200
C     -1.500800   -2.131300   -0.230500
C     -0.915300   -0.955300    0.173900
C     -3.924400    0.312500   -0.197700
N     -3.729200    0.181000   -1.543400
