24

C      4.629100   -1.337300    1.378200
C      5.455000   -0.504300    0.617200
C      4.717900    0.360000   -0.225700
C      5.091300    1.308500   -1.111100
S      3.664700    1.979500   -1.794200
C      2.609900    0.963600   -0.867700
C      1.177100    1.021400   -0.970500
C      0.395000    1.841500   -1.773100
C     -0.965100    1.527700   -1.521500
C     -2.197400    1.978100   -1.989200
N     -3.353100    1.439000   -1.517600
C     -3.338500    0.463700   -0.593700
C     -4.583800   -0.051100   -0.148100
C     -4.769200   -1.075800    0.815700
C     -3.555100   -1.549500    1.304800
C     -3.475800   -2.543100    2.248100
S     -1.839800   -2.896600    2.637600
C     -1.244800   -1.714000    1.538000
C     -2.264800   -1.062500    0.887000
C     -2.116800   -0.046300   -0.070100
C     -0.952900    0.521900   -0.569000
O      0.334300    0.219200   -0.239300
C      3.348900    0.135600   -0.059100
S      2.899700   -1.146400    1.139500
