32

C      7.078200   -2.060700   -0.461000
C      7.652700   -0.783600   -0.501000
C      6.701200    0.242000   -0.287600
C      6.782500    1.591600   -0.248100
S      5.200400    2.209800    0.049100
C      4.500800    0.639300    0.136400
C      3.093800    0.432800    0.394500
C      2.086600    0.753500   -0.531100
C      0.716500    0.552700   -0.324300
N     -0.071600    0.921400   -1.327500
C     -1.412400    0.750700   -1.206000
C     -2.087600    0.210300   -0.108800
C     -1.257600   -0.177400    0.959200
C     -1.926100   -0.721600    2.063100
N     -3.263400   -0.906600    2.185200
C     -4.061600   -0.548900    1.183700
C     -5.446100   -0.790300    1.404900
C     -6.498400   -0.507800    0.510400
C     -5.988600    0.054500   -0.641000
C     -6.749000    0.441700   -1.712900
N     -5.880600    0.948700   -2.647000
C     -4.581400    0.878900   -2.175900
C     -4.609000    0.320300   -0.917600
C     -3.526900    0.030900   -0.014000
C      0.178100   -0.006100    0.864900
C      1.175500   -0.344200    1.865200
N      0.948000   -0.871400    3.082200
S      2.409200   -1.059300    3.832300
N      3.420400   -0.480000    2.662700
C      2.652400   -0.118000    1.620100
C      5.444800   -0.327300   -0.078600
S      5.348200   -2.129800   -0.148000
