29

C      6.028000    1.731500   -0.815500
C      6.966700    0.711100   -0.552800
C      6.243800   -0.396400   -0.048300
C      6.431400   -1.650500    0.409700
S      4.872900   -2.285800    0.850100
C      4.030700   -0.842400    0.382200
C      2.588200   -0.714100    0.466400
C      1.819900   -0.351100   -0.628900
C      0.449500   -0.228200   -0.491400
N     -0.272000    0.131000   -1.554600
C     -1.612700    0.241100   -1.401200
C     -2.316000    0.013100   -0.209800
C     -1.535200   -0.359200    0.897500
N     -2.099000   -0.602700    2.098200
C     -3.438200   -0.491700    2.245900
C     -4.322600   -0.135500    1.241900
C     -5.715500   -0.053100    1.524900
C     -6.684300    0.299100    0.576300
C     -6.198300    0.578000   -0.715800
N     -6.959600    0.932700   -1.761200
S     -5.932800    1.147700   -3.042100
N     -4.479500    0.802700   -2.326800
C     -4.722600    0.496900   -1.039600
C     -3.746000    0.127900   -0.032500
C     -0.143200   -0.478900    0.750300
C      0.711900   -0.842600    1.793100
N      2.054300   -0.960800    1.679400
C      4.941600    0.054000   -0.061100
N      4.730200    1.331600   -0.500100
