32

C      6.128400    1.946300    0.510500
C      7.017800    1.260900   -0.345800
C      6.243800    0.347700   -1.102900
C      6.361900   -0.587200   -2.067500
S      4.769200   -1.212000   -2.390400
C      4.014000   -0.201900   -1.202400
C      2.597700   -0.224800   -0.935700
C      1.589500    0.002500   -1.895700
C      0.189400   -0.022300   -1.657300
N     -0.559600    0.105200   -2.750200
C     -1.897600    0.000400   -2.625000
C     -2.584100   -0.099500   -1.412200
C     -3.996100   -0.222800   -1.414300
N     -4.894900   -0.359100   -2.455200
C     -6.168900   -0.487400   -1.977500
C     -6.106500   -0.408200   -0.607800
C     -4.737500   -0.236700   -0.234300
C     -4.054100   -0.030800    0.992400
C     -4.818700    0.082700    2.176300
C     -4.212900    0.411300    3.383400
C     -2.850700    0.661000    3.411900
C     -2.089900    0.529300    2.243700
C     -2.636900    0.111500    1.007800
C     -1.863000   -0.072000   -0.202600
C     -0.411100   -0.200000   -0.358000
C      0.623200   -0.562500    0.567800
C      0.479800   -1.160300    1.799900
N      1.735100   -1.382000    2.321100
C      2.691300   -1.025400    1.401600
C      2.030100   -0.560700    0.289300
C      4.968700    0.564900   -0.630800
N      4.814000    1.516200    0.337600
