24

C     -5.405300    1.950800    0.030600
C     -6.364500    0.919000   -0.009000
C     -5.653000   -0.302400   -0.058800
C     -5.876500   -1.628600   -0.111300
S     -4.332400   -2.412000   -0.145100
C     -3.425700   -0.914400   -0.086800
C     -1.978800   -0.880200   -0.087800
C     -1.121200   -1.964700   -0.132500
C      0.259000   -1.609600   -0.120600
N      1.278800   -2.509200   -0.158100
C      2.520700   -1.989000   -0.139400
C      2.826000   -0.628600   -0.085600
C      4.154800   -0.127500   -0.067800
N      5.373800   -0.774300   -0.095600
C      6.398100    0.133700   -0.061000
C      5.844200    1.390800   -0.010000
C      4.430000    1.241900   -0.013600
C      3.359100    2.156000    0.024500
C      2.040100    1.685700    0.007900
C      1.769900    0.304900   -0.046700
C      0.449700   -0.229200   -0.065800
S     -1.072100    0.574900   -0.031300
C     -4.332700    0.096200   -0.045100
N     -4.108300    1.445200    0.008300
