32

Si    -0.403500    3.949900   -2.412200
C      0.751700    2.632100   -1.776000
C      0.084400    1.644600   -1.139600
C      0.704800    0.469100   -0.507100
C      2.101400    0.319200   -0.418700
C      2.664300   -0.769500    0.243600
C      1.777900   -1.674000    0.799200
N      0.429400   -1.564700    0.728200
C     -0.123100   -0.517300    0.064800
C     -1.636200   -0.436300    0.037400
C     -2.508400   -1.501600    0.506100
C     -2.114100   -2.812900    0.899300
C     -3.007400   -3.789800    1.362200
C     -4.358500   -3.510500    1.448000
C     -4.814300   -2.260200    1.054200
C     -3.914100   -1.275200    0.580800
C     -4.466700   -0.040300    0.169100
C     -5.779800    0.521900    0.113800
C     -5.647600    1.776700   -0.420600
O     -4.349400    2.027200   -0.702100
C     -3.614200    0.927700   -0.346600
C     -2.223700    0.774700   -0.461300
C     -1.381700    1.817700   -1.094800
C     -1.803500    2.946600   -1.706500
C      4.104100   -0.940500    0.352100
S      4.905300   -2.368200   -0.192600
C      6.463000   -1.782900    0.252800
C      6.306500   -0.553300    0.791200
C      7.213800    0.389000    1.331200
C      6.571800    1.546000    1.787300
S      4.823100    1.592300    1.604500
C      5.007800   -0.048100    0.866200
