32

C      7.077400    0.267900    2.383300
C      7.712400   -0.417700    1.340000
C      6.808200   -0.809500    0.323900
C      6.957500   -1.464900   -0.849000
S      5.407600   -1.574600   -1.596700
C      4.620800   -0.758500   -0.301000
C      3.197100   -0.508000   -0.299000
C      2.580500    0.419100   -1.154500
C      1.209500    0.696300   -1.181300
N      0.839200    1.617700   -2.069500
C     -0.469000    1.945200   -2.159300
C     -1.487300    1.394100   -1.393100
C     -2.826300    1.811200   -1.573500
C     -3.879600    1.276600   -0.824300
C     -5.243300    1.721900   -1.032600
C     -6.377900    1.243100   -0.332500
C     -6.004100    0.279100    0.590300
C     -6.848000   -0.395800    1.434000
N     -6.066300   -1.256800    2.176400
C     -4.740500   -1.133900    1.812000
C     -4.676500   -0.181900    0.823400
C     -3.530300    0.284000    0.135700
C     -2.189000   -0.133200    0.319200
C     -1.131000    0.413900   -0.442900
C      0.265200    0.051800   -0.328400
C      0.849400   -0.920900    0.578900
N      0.200400   -1.671000    1.489500
S      1.319100   -2.608500    2.262100
N      2.695300   -2.135500    1.483300
C      2.338300   -1.199900    0.586200
C      5.519800   -0.397300    0.665100
S      5.339000    0.492300    2.226500
