31

C      6.817000    0.671100    0.412700
C      7.063500    0.233300   -0.894100
C      5.906300   -0.299900   -1.510500
C      5.663300   -0.826700   -2.731700
S      3.998200   -1.272100   -2.795900
C      3.700000   -0.749300   -1.183800
C      2.396400   -0.851100   -0.569000
C      1.343400    0.042800   -0.876900
C      0.103900   -0.112500   -0.230900
O     -1.008400    0.666400   -0.413900
C     -1.985300    0.165600    0.409800
C     -1.518300   -0.936700    1.130600
N     -2.275900   -1.628500    2.020500
C     -3.545700   -1.161900    2.162700
C     -4.127700   -0.073500    1.501800
C     -5.498800    0.333200    1.735800
C     -6.143900    1.424400    1.098800
C     -5.282100    2.057800    0.213500
C     -5.582900    3.145300   -0.564100
N     -4.446800    3.445700   -1.287100
C     -3.433600    2.562000   -0.975900
C     -3.928800    1.686100   -0.042200
C     -3.285900    0.615200    0.578900
C     -0.202000   -1.080900    0.701700
C      0.823800   -2.005500    1.040000
C      0.711600   -3.029600    1.932000
S      2.213100   -3.870100    1.992300
C      2.938800   -2.824000    0.820500
C      2.073800   -1.841000    0.383800
C      4.835100   -0.235600   -0.619200
S      5.170900    0.478000    1.004500
