29

C      4.882600    0.881800   -2.015400
C      6.185800    1.031900   -1.522900
C      6.083700    0.782700   -0.145700
C      6.851700    0.733900    0.962600
S      5.816500    0.323900    2.302300
C      4.387500    0.235700    1.321000
C      3.079700   -0.078200    1.806300
C      2.637000   -0.397300    3.075000
C      1.237900   -0.619700    3.003100
C      0.846300   -0.444700    1.689300
N      1.974800   -0.099800    0.985400
C     -0.447900   -0.551500    1.081800
S     -1.895000   -0.226200    1.964600
C     -2.920200   -0.517400    0.614100
C     -4.342000   -0.383700    0.666000
S     -5.318000   -1.232400    1.838900
C     -6.809100   -0.572700    1.249300
C     -6.512800    0.242400    0.221800
O     -7.398300    0.964600   -0.516500
C     -6.520800    1.589300   -1.384000
C     -5.175300    1.259200   -1.176300
C     -5.182200    0.350600   -0.100900
C     -2.177700   -0.880000   -0.477800
S     -2.653500   -1.349600   -2.161800
C     -0.935400   -1.571900   -2.431100
C     -0.097800   -1.310600   -1.342000
C     -0.810000   -0.890400   -0.182900
C      4.751000    0.512600    0.049100
O      3.944800    0.552000   -1.052900
