30

C     -5.862300   -2.443300    0.974800
C     -6.848800   -2.113700    0.035900
C     -6.262600   -1.127700   -0.772600
C     -6.547900   -0.350400   -1.838800
S     -5.139500    0.620100   -2.175600
C     -4.232100   -0.047300   -0.859500
C     -2.878700    0.346000   -0.551100
C     -1.803000    0.200100   -1.460800
C     -0.455400    0.581600   -1.172700
C     -0.046300    1.157200    0.052000
C      1.323800    1.546000    0.322700
C      1.869100    2.759800    0.692700
C      3.270100    2.587800    0.814100
C      3.570300    1.271500    0.510600
N      2.372700    0.662400    0.211900
C      4.835900    0.590200    0.485800
S      6.319800    1.365000    0.936300
C      7.269600   -0.038100    0.649200
C      6.442100   -1.018800    0.229700
C      6.664600   -2.364100   -0.147700
C      5.484800   -3.016400   -0.519800
S      4.011200   -2.063200   -0.446600
C      5.083600   -0.713300    0.124100
C     -1.107900    1.310700    0.962600
C     -0.978500    1.817700    2.235600
S     -2.482300    1.871100    3.060300
C     -3.320700    1.192200    1.725100
C     -2.477100    0.917400    0.672300
C     -5.004600   -0.965000   -0.244200
O     -4.680800   -1.739300    0.829000
