31

C      6.124600    2.000400   -2.045600
C      7.307800    1.416800   -1.573600
C      6.894500    0.515200   -0.580700
C      7.406500   -0.374300    0.296100
S      6.075100   -1.064200    1.185100
C      4.884800   -0.140200    0.330100
C      3.469500   -0.232300    0.595800
C      2.899400    0.050700    1.859100
C      1.500000   -0.034600    2.140000
C      0.518600   -0.409000    1.189000
C     -0.890400   -0.478600    1.514700
C     -1.590000   -0.823700    2.652200
C     -2.964200   -0.643500    2.353500
C     -3.032600   -0.190900    1.051600
O     -1.765800   -0.073900    0.551500
C     -4.087900    0.189300    0.141000
C     -3.921300    1.091500   -0.945000
C     -4.972200    1.486500   -1.848800
C     -6.303200    1.020400   -1.770700
C     -6.440400    0.132900   -0.712600
C     -7.580400   -0.530700   -0.348200
O     -7.313600   -1.333600    0.725600
C     -5.990800   -1.175600    1.042000
C     -5.408800   -0.267000    0.194100
C      1.080600   -0.711800   -0.068400
C      0.373300   -1.161000   -1.161300
S      1.386300   -1.449500   -2.515700
C      2.795000   -1.001400   -1.646500
C      2.506300   -0.624900   -0.353900
C      5.526600    0.644000   -0.559200
O      4.976900    1.538400   -1.427300
