33

C      6.458300    1.225100    2.249700
C      7.442400    1.351500    1.244800
C      6.799100    1.125800    0.003400
C      7.048800    1.081900   -1.321200
S      5.547700    0.720000   -2.127000
C      4.654100    0.626600   -0.647800
C      3.242800    0.334400   -0.601200
C      2.248400    1.231300   -1.054700
C      0.845800    0.961400   -0.987600
C      0.295600   -0.233100   -0.462800
C     -1.126000   -0.504900   -0.417200
S     -2.196700    0.525300    0.484400
C     -3.620300   -0.388900    0.081500
C     -4.930400   -0.064600    0.549900
S     -6.111300   -1.233100    1.068000
C     -7.302100   -0.028900    1.465200
C     -6.766400    1.178100    1.190300
C     -7.100500    2.539700    1.239500
C     -5.966600    3.205400    0.757600
O     -4.925800    2.368600    0.400400
C     -5.483500    1.160000    0.696700
C     -3.235200   -1.418300   -0.709900
N     -4.018400   -2.385100   -1.278200
C     -3.074800   -3.134700   -1.975900
C     -1.775700   -2.609300   -1.819300
C     -1.884100   -1.472700   -0.977800
C      1.281300   -1.132300   -0.012700
C      1.023700   -2.354300    0.566400
S      2.467900   -3.184400    0.981500
C      3.456000   -1.905000    0.405200
C      2.705800   -0.857700   -0.080500
C      5.496100    0.882900    0.376700
N      5.207200    0.928900    1.711200
