32

C     -7.324100   -1.760000   -0.641100
C     -8.212100   -0.692900   -0.382900
C     -7.426600    0.407300    0.039300
C     -7.540200    1.688300    0.445100
S     -5.936700    2.275700    0.784500
C     -5.180500    0.776200    0.355200
C     -3.742400    0.572600    0.392300
C     -3.041300    0.249200   -0.776500
C     -1.658600    0.044100   -0.742100
C     -0.947400    0.161100    0.460700
C     -1.652400    0.484100    1.628900
C     -3.035300    0.690000    1.594800
C      0.508500   -0.054100    0.496500
C      0.970700   -1.350400    0.771200
C      2.331600   -1.627100    0.815500
C      3.270900   -0.613500    0.586700
C      4.681100   -0.981100    0.638000
S      5.565000   -1.044000    2.114100
C      7.022400   -1.526500    1.327100
C      6.768800   -1.622400    0.002400
C      7.561300   -1.973000   -1.116800
C      6.838700   -1.929700   -2.315300
S      5.145700   -1.464400   -2.191300
C      5.472800   -1.328900   -0.421900
C      2.840100    0.713500    0.307900
C      3.746300    1.777900    0.072400
C      3.312200    3.074900   -0.200000
C      1.955900    3.347600   -0.243600
C      1.038400    2.322400   -0.015000
C      1.445200    0.994300    0.262900
C     -6.145700   -0.096300   -0.009600
N     -5.999700   -1.396400   -0.403200
