26

C     -7.261100   -0.894800    0.293300
C     -7.546300    0.408200   -0.153500
C     -6.304600    1.044700   -0.371200
C     -5.826100    2.233600   -0.778500
S     -4.103400    2.131200   -0.742800
C     -4.076000    0.467400   -0.172500
C     -2.843600   -0.259500    0.076900
C     -2.660700   -1.558100    0.520900
C     -1.286600   -1.930800    0.649300
C     -0.426300   -0.913700    0.302100
S     -1.298300    0.475700   -0.173400
C      1.010900   -0.950200    0.315200
C      1.873600   -1.971100    0.665100
C      3.199800   -1.495300    0.502800
C      3.133200   -0.189800    0.055800
N      1.796500    0.118900   -0.050400
C      4.171600    0.741700   -0.262800
S      3.889900    2.367100   -0.819500
C      5.583700    2.741800   -0.947100
C      6.272400    1.644600   -0.571100
C      7.596400    1.205800   -0.420300
C      7.487800   -0.115000    0.031900
O      6.187100   -0.558700    0.183300
C      5.510100    0.561800   -0.200700
C     -5.374100    0.078700   -0.039700
N     -5.887700   -1.122600    0.371900
