29

C     -6.872100   -1.288500    0.064800
C     -7.549000   -0.109400   -0.314200
C     -6.601300    0.941700   -0.278500
C     -6.494400    2.265700   -0.507100
S     -4.844300    2.718500   -0.197600
C     -4.364800    1.105900    0.238800
C     -3.046000    0.746300    0.667900
C     -2.703500    0.044900    1.808500
C     -1.296200   -0.152100    1.925800
C     -0.604200    0.403100    0.869300
S     -1.656800    1.162400   -0.245500
C      0.843200    0.419300    0.629800
C      1.548100    1.558100    1.032400
C      2.924800    1.629000    0.859900
C      3.648900    0.564500    0.288900
C      5.110700    0.718500    0.174600
N      5.885000   -0.230800    0.710400
C      7.191200    0.000400    0.610400
N      7.758700    1.061200    0.042600
C      6.887900    1.941300   -0.444300
N      5.562400    1.837200   -0.403600
C      2.942500   -0.600800   -0.144700
C      3.583100   -1.700900   -0.771000
C      2.886500   -2.834100   -1.193000
C      1.517900   -2.904100   -1.008900
C      0.850900   -1.838300   -0.407800
C      1.528800   -0.673500    0.032000
C     -5.448500    0.303500    0.123800
N     -5.528400   -1.043800    0.342100
