27

C     -7.687800   -1.832300    0.227600
C     -8.145800   -0.636200    0.790600
C     -7.124800    0.338300    0.889400
C     -7.103200    1.602800    1.363800
S     -5.502100    2.207100    1.182600
C     -4.915500    0.740300    0.477700
C     -3.558000    0.557100    0.046300
C     -3.123900    0.051600   -1.161400
C     -1.700700   -0.003300   -1.251200
C     -1.067500    0.462500   -0.111600
S     -2.232400    0.962100    1.050300
C      0.356700    0.552300    0.150100
C      0.989400    1.029000    1.286200
C      2.412000    0.970900    1.198900
C      2.842700    0.445700   -0.001000
S      1.522600    0.039400   -1.007900
C      4.200500    0.220700   -0.467700
C      4.759500    0.850500   -1.608000
C      6.105400    0.647100   -2.054800
C      7.029500   -0.203400   -1.410400
C      6.474600   -0.824200   -0.290300
C      7.185900   -1.702000    0.490200
S      6.225000   -2.309300    1.779300
C      4.852600   -1.396300    1.285600
C      5.119600   -0.629500    0.173700
C     -5.929800   -0.179200    0.387000
S     -5.990500   -1.881900   -0.227900
