28

C     -5.368200    1.676700    0.206200
C     -6.426500    0.770700    0.080700
C     -5.810600   -0.480600   -0.061800
C     -6.147200   -1.774800   -0.223700
S     -4.675100   -2.685600   -0.312200
C     -3.641400   -1.286900   -0.127300
C     -2.166500   -1.354400   -0.113500
C     -1.491300   -2.587000   -0.252900
C     -0.087200   -2.696000   -0.245200
C      0.676500   -1.530100   -0.092600
C      0.004600   -0.325200    0.043500
C     -1.385900   -0.192800    0.038900
O      0.888700    0.699300    0.180800
C      2.142800    0.164600    0.134600
C      2.063800   -1.212900   -0.033500
C      3.256700   -1.929200   -0.102600
N      4.452800   -1.287500   -0.007100
C      4.515000    0.043700    0.155200
C      5.783000    0.638600    0.246200
C      6.022500    2.019400    0.417100
C      4.876900    2.841000    0.499600
N      4.877800    4.172000    0.661000
S      3.285000    4.639500    0.694000
N      2.529700    3.176100    0.505400
C      3.494300    2.244900    0.406800
C      3.350000    0.844100    0.234900
C     -4.461900   -0.213800   -0.009400
O     -4.115900    1.095700    0.154400
