27

C      7.356500    0.804600   -1.930100
C      8.171600    0.064900   -1.064900
C      7.285600   -0.520000   -0.148300
C      7.301400   -1.328600    0.930300
S      5.657000   -1.533000    1.453200
C      4.999800   -0.518600    0.196400
C      3.605400   -0.221900    0.010400
C      3.011400    0.563600   -0.962100
N      1.634600    0.678800   -0.904400
C      1.165000   -0.016900    0.109600
S      2.363200   -0.834200    1.032700
C     -0.245200   -0.089500    0.424600
C     -0.865200   -0.750400    1.471000
C     -2.283600   -0.594700    1.461400
C     -2.723700    0.178800    0.406800
S     -1.410200    0.712300   -0.552500
C     -4.079100    0.560700    0.052000
C     -4.520400    1.886500   -0.198300
C     -5.878900    2.240400   -0.528700
C     -6.939300    1.312000   -0.645300
C     -6.480700    0.025000   -0.400600
C     -7.215300   -1.129400   -0.435700
O     -6.402300   -2.194100   -0.156600
C     -5.140200   -1.706800    0.054700
C     -5.140400   -0.340500   -0.070900
C      6.044200   -0.082400   -0.545100
O      6.007500    0.737100   -1.634900
