32

C      6.776700   -0.586500   -1.941900
C      7.589200    0.038700   -0.971500
C      6.754400    0.351800    0.128200
C      6.793300    0.926000    1.347700
S      5.182800    0.870200    2.005400
C      4.529000    0.062800    0.618100
C      3.136400   -0.332100    0.515400
C      2.781600   -1.672200    0.356700
N      1.525600   -2.156000    0.214000
C      0.547700   -1.217300    0.263000
C      0.808700    0.138000    0.431800
C      2.114100    0.620300    0.557600
N     -0.402700    0.798400    0.408500
C     -1.475900   -0.074300    0.291100
C     -0.843900   -1.304800    0.146500
C     -1.648700   -2.448700   -0.109900
C     -1.188800   -3.722700   -0.274800
S     -2.521800   -4.754300   -0.608700
C     -3.645400   -3.443400   -0.524100
C     -3.037100   -2.235200   -0.241700
C     -3.725600   -0.996000   -0.107500
C     -5.111800   -0.849400   -0.303600
C     -5.713900    0.393400   -0.153700
C     -4.978700    1.509800    0.252700
C     -5.661200    2.725300    0.432300
C     -5.006100    3.859200    0.898300
C     -3.662000    3.780100    1.215000
C     -2.971000    2.576800    1.030000
C     -3.580800    1.408000    0.500400
C     -2.915600    0.140100    0.243500
C      5.524700   -0.117800   -0.277800
N      5.453000   -0.690400   -1.517000
