26

C      6.205000   -1.551400    1.463200
C      6.979400   -0.656200    0.724000
C      6.191900    0.227600   -0.048100
C      6.536900    1.225200   -0.885900
S      5.095700    1.905400   -1.503000
C      4.048500    0.825700   -0.614600
C      2.574500    0.922000   -0.736600
C      1.958700    1.870200   -1.558700
N      0.618700    2.032300   -1.732900
C     -0.204100    1.216700   -1.062800
C     -1.577400    1.351900   -1.215100
C     -2.490000    0.524800   -0.537700
C     -3.875900    0.668800   -0.697800
C     -4.772700   -0.168500   -0.011200
C     -6.160600   -0.040700   -0.157600
C     -7.010300   -0.889900    0.540300
C     -6.440500   -1.841400    1.364000
N     -5.108300   -1.994300    1.530200
C     -4.288500   -1.170600    0.853000
C     -2.914800   -1.302300    1.002400
C     -2.003400   -0.473800    0.323700
C     -0.616900   -0.616300    0.482600
C      0.282800    0.220400   -0.203400
C      1.678900    0.091700   -0.056000
C      4.828800   -0.033100    0.136100
S      4.469600   -1.399300    1.286600
