30

C      7.625600    1.256300   -1.477500
C      8.431800    0.972700   -0.369000
C      7.534100    0.590300    0.638600
C      7.540900    0.187900    1.925700
S      5.890500   -0.085500    2.394600
C      5.245300    0.354400    0.835900
C      3.854400    0.365700    0.478000
N      3.425300    0.807200   -0.685500
C      2.049900    0.702400   -0.759000
C      1.412800    0.173200    0.349400
S      2.608600   -0.192100    1.526700
C      0.006000   -0.041800    0.543700
S     -1.222300    0.663700   -0.471200
C     -2.539100   -0.065600    0.396500
C     -3.911300    0.183400    0.022300
C     -4.846900    0.865000    0.839600
C     -6.217300    1.102300    0.466800
C     -6.795500    0.677600   -0.752200
C     -5.862600    0.001300   -1.527800
C     -6.094000   -0.555200   -2.758700
N     -4.911700   -1.139700   -3.161100
C     -3.936800   -0.961000   -2.200400
C     -4.499400   -0.239700   -1.174600
C     -2.003400   -0.786300    1.406100
C     -2.406700   -1.606900    2.472200
C     -1.216200   -2.011900    3.085400
O     -0.073900   -1.512300    2.489600
C     -0.630300   -0.778100    1.483200
C      6.295000    0.680900    0.048300
O      6.272900    1.083200   -1.254700
