31

C      5.335500   -2.923000    1.533500
C      6.543000   -2.195000    1.578800
C      6.244400   -0.873600    1.168800
C      6.842000    0.316100    0.963500
S      5.621700    1.424100    0.418000
C      4.343400    0.242900    0.496200
C      2.981800    0.535300    0.156500
S      1.619300   -0.185300    0.982900
C      0.447400    0.654400    0.035700
C     -0.988900    0.496900    0.222200
C     -1.573800    1.158200    1.310400
C     -2.941900    1.072900    1.535700
C     -3.758100    0.323100    0.678400
C     -5.193000    0.296300    0.963500
C     -6.224900    1.008600    0.382700
N     -7.489000    0.748800    0.878100
C     -7.399400   -0.151600    1.832300
S     -5.824200   -0.732200    2.184500
C     -3.193900   -0.362000   -0.434600
C     -3.973000   -1.138400   -1.328900
C     -3.409200   -1.808700   -2.414100
C     -2.045500   -1.727500   -2.635900
C     -1.250100   -0.975300   -1.772200
C     -1.791500   -0.276200   -0.664000
C      1.096000    1.443500   -0.845200
N      0.546100    2.277000   -1.777400
C      1.686400    2.801100   -2.379300
C      2.864300    2.279900   -1.802400
C      2.471400    1.376700   -0.776400
C      4.890000   -0.922900    0.919000
N      4.272300   -2.127800    1.112000
