30

C      6.636500   -1.832400    1.284800
C      7.580100   -1.189200    0.474600
C      6.823700   -0.374900   -0.381300
C      6.994600    0.497800   -1.395200
S      5.418500    1.043300   -1.886900
C      4.583800    0.081800   -0.700200
C      3.161000    0.067300   -0.539700
S      2.387200   -0.163500    1.008800
C      0.784100   -0.035100    0.374000
C     -0.416200   -0.141000    1.143400
C     -0.577000   -0.267200    2.514500
C     -1.968800   -0.323600    2.774600
C     -2.600900   -0.222600    1.553600
O     -1.662800   -0.130600    0.572400
C     -3.990500   -0.243400    1.141600
C     -4.999300   -0.895600    1.900400
C     -6.383700   -0.943000    1.536700
C     -6.911200   -0.338900    0.378900
C     -5.926400    0.311200   -0.364600
C     -6.220800    0.978600   -1.527900
S     -4.816500    1.692900   -2.207000
C     -3.815400    1.106500   -0.936800
C     -4.521300    0.366800   -0.014000
C      0.888300    0.182600   -0.952800
O     -0.129100    0.354100   -1.845000
C      0.596800    0.525300   -3.006200
C      1.983300    0.464700   -2.828600
C      2.170700    0.240600   -1.450000
C      5.520800   -0.600500   -0.004300
O      5.325500   -1.489900    1.011100
