17

C      4.929800    0.202800    0.149100
C      4.234300   -0.852500   -0.401900
C      2.868900   -0.551700   -0.219400
N      1.737500   -1.226800   -0.560600
C      0.577400   -0.609400   -0.212900
C     -0.772500   -0.987000   -0.392000
C     -1.553200    0.015400    0.154700
C     -3.095700    0.057400    0.202200
C     -4.026500   -0.879100   -0.281600
N     -5.285700   -0.493400   -0.055600
O     -5.182400    0.728300    0.593600
C     -3.870700    1.049000    0.743100
N     -0.715600    0.983400    0.656800
C      0.582000    0.618200    0.441100
N      1.681600    1.312700    0.793200
C      2.817800    0.678100    0.436600
O      4.079400    1.137000    0.660600
