23

Si    -2.423700    3.944200    0.358100
C     -0.697900    3.226600    0.278700
C     -0.741300    1.884700    0.166500
C      0.380400    0.990100    0.079000
C      1.776600    1.180400    0.079500
C      2.352500   -0.081200   -0.032900
O      1.353800   -1.028100   -0.101300
C      0.169500   -0.373700   -0.033200
C     -1.146000   -0.921200   -0.064600
N     -1.504900   -2.227000   -0.170300
C     -2.884600   -2.274100   -0.158900
C     -3.890600   -3.274300   -0.231800
C     -5.137300   -2.689300   -0.168800
S     -5.111400   -0.974900   -0.025200
C     -3.379100   -0.995300   -0.046100
C     -2.267000   -0.117200    0.015300
C     -2.134700    1.303900    0.133200
C     -3.119200    2.218300    0.220900
C      3.736700   -0.444800   -0.078800
C      4.301800   -1.700900   -0.190700
C      5.709600   -1.546500   -0.193400
C      5.971400   -0.200100   -0.083000
N      4.770100    0.458500   -0.014300
