30

C      7.475000   -0.266000   -1.901100
C      7.106300   -1.269600   -1.038100
C      5.744200   -1.166700   -0.631200
N      5.133000   -2.030000    0.215100
C      3.833100   -1.767700    0.483700
C      3.052800   -0.709200   -0.012700
C      3.722100    0.168600   -0.890300
C      3.044000    1.266300   -1.451600
C      1.703800    1.505500   -1.152100
C      0.987800    0.672100   -0.290900
C     -0.372400    0.990300   -0.043300
C     -1.230000    0.249900    0.794600
C     -2.630900    0.618200    1.018600
C     -2.960000    1.293800    2.208700
C     -4.265600    1.697400    2.467700
C     -5.267300    1.434600    1.538700
C     -4.981800    0.760600    0.342800
C     -6.009400    0.501800   -0.579800
C     -5.752200   -0.172300   -1.772100
C     -4.463000   -0.600000   -2.056900
C     -3.430200   -0.349700   -1.150200
C     -3.655600    0.338100    0.066800
C     -0.641800   -0.879500    1.418100
N     -1.257200   -1.728200    2.260200
S     -0.148300   -2.869400    2.697300
N      1.170300   -2.345100    1.851100
C      0.810700   -1.241400    1.170300
C      1.657800   -0.452300    0.293300
C      5.093100   -0.071900   -1.199900
S      6.183900    0.800700   -2.222900
