25

C      6.690400    1.225800   -1.964400
C      6.673500   -0.088300   -1.534500
C      5.391600   -0.481700   -1.054000
N      5.031000   -1.696200   -0.561600
C      3.756400   -1.912100   -0.140700
C      2.747500   -0.944700   -0.176000
C      1.370700   -0.861400    0.176300
C      0.415400   -1.735300    0.723800
C     -0.890700   -1.262000    0.930200
C     -1.267900    0.053200    0.602100
C     -0.313500    0.931600    0.060600
C      0.975100    0.437500   -0.134700
O      2.018500    1.146800   -0.651400
C      3.075000    0.301100   -0.669200
C      4.505900    0.564500   -1.148600
S      5.154700    1.979100   -1.784900
C     -2.631700    0.513600    0.837800
C     -2.975400    1.480400    1.820100
C     -4.309400    1.938500    2.072800
C     -5.444000    1.483600    1.369600
C     -5.108000    0.540800    0.398600
C     -6.047800   -0.036700   -0.418900
S     -5.322600   -1.140300   -1.518300
C     -3.746700   -0.839200   -0.898300
C     -3.768200    0.069900    0.135000
