29

Si     1.286300    1.177300    0.332700
C      2.701500   -0.098800    0.154300
C      2.186700   -1.339800   -0.023600
C      0.724100   -1.405500   -0.036300
C     -0.017000   -0.197000    0.133900
C     -1.457600   -0.092800    0.145200
C     -2.139300    1.132500    0.317800
C     -3.545700    1.231600    0.328400
C     -4.189100    2.468600    0.502700
C     -5.582100    2.557600    0.511800
C     -6.351800    1.411000    0.346700
C     -5.729000    0.174600    0.172400
C     -4.327900    0.070900    0.161300
C     -3.689900   -1.163200   -0.012600
C     -2.275800   -1.257900   -0.022600
C     -1.528300   -2.467200   -0.192800
C     -2.087900   -3.712500   -0.371300
S     -0.895500   -4.937300   -0.542700
C      0.388300   -3.809700   -0.379100
C     -0.081700   -2.530700   -0.198300
C      4.138700    0.234100    0.205100
C      5.164700   -0.723800    0.072300
N      6.529800   -0.549700    0.100300
C      7.062300    0.687700    0.276500
C      6.177800    1.769900    0.427300
N      6.528700    3.053100    0.609500
S      5.118800    3.911700    0.727200
N      4.007400    2.698600    0.553000
C      4.678200    1.542300    0.391300
