33

C      6.886900   -1.154700   -1.417200
C      7.887100   -0.599200   -0.626700
C      7.392700    0.151100    0.456300
N      8.146500    0.767800    1.380500
S      7.092700    1.489600    2.440900
N      5.637800    1.030100    1.792900
C      5.913100    0.324500    0.679900
C      5.003100   -0.270000   -0.235300
N      5.532600   -1.030500   -1.252300
C      3.561300   -0.180900   -0.128200
C      2.728300   -1.321000   -0.079800
C      1.319300   -1.260500    0.027300
C      0.584500   -0.053100    0.082900
C     -0.876700   -0.024100    0.200200
C     -1.672400    0.679600   -0.713900
C     -3.069100    0.688300   -0.604800
C     -3.723500   -0.008100    0.421100
C     -2.926400   -0.713400    1.335900
C     -1.529600   -0.723500    1.225600
C     -5.180400    0.012800    0.554100
C     -5.857100    0.301300    1.750900
N     -7.212400    0.338000    1.979100
C     -8.091200    0.077800    0.970200
C     -7.569200   -0.230100   -0.300600
N     -8.278500   -0.514700   -1.404900
S     -7.173800   -0.808800   -2.606800
N     -5.753600   -0.585300   -1.783000
C     -6.075100   -0.264200   -0.515300
C      1.369700    1.138700    0.010800
N      0.913400    2.404800    0.038700
S      2.227200    3.401000   -0.089600
N      3.447300    2.290200   -0.199900
C      2.884100    1.071700   -0.104200
