28

C      6.683600    0.356500    0.132400
C      6.115000    1.500600   -0.382800
C      4.709100    1.276200   -0.347200
S      3.238100    2.104400   -0.765500
C      2.254000    0.762100   -0.233000
C      3.111100   -0.226400    0.228200
C      2.592800   -1.447400    0.730200
C      3.174600   -2.567700    1.236400
O      2.173000   -3.442700    1.569500
C      0.980600   -2.839500    1.259600
C      1.194500   -1.585900    0.729600
C      0.217400   -0.665900    0.292200
C     -1.212300   -0.913100    0.337300
C     -2.190000    0.012300   -0.095700
C     -3.625500   -0.235500   -0.042600
C     -4.462700    0.526900    0.787200
C     -5.835900    0.277000    0.846800
C     -6.392400   -0.742700    0.078300
C     -5.577200   -1.512900   -0.747700
C     -4.203800   -1.262200   -0.805400
C     -1.587900    1.182200   -0.577300
C     -2.245100    2.269000   -1.104200
N     -1.292000    3.189200   -1.462900
C     -0.033600    2.702300   -1.183100
C     -0.170000    1.447500   -0.634500
C      0.835600    0.558600   -0.206800
C      4.483300    0.034500    0.175600
N      5.698500   -0.533800    0.471800
