50

C      6.969300   -5.393000    2.452600
C      6.060200   -5.256000    1.408000
C      5.746400   -3.984700    0.918800
C      6.333800   -2.822600    1.454800
C      5.994000   -1.491200    0.910000
C      6.898300   -0.447500    0.849900
C      6.458800    0.747000    0.308100
C      7.323400    1.941700    0.203700
C      8.709800    1.846500   -0.020600
C      9.515300    2.988000   -0.098800
C      8.950900    4.252000    0.041200
C      7.581100    4.376200    0.251500
C      6.778700    3.233700    0.329100
N      5.195000    0.896900   -0.142500
C      4.375600   -0.163800   -0.050900
C      2.985600   -0.012800   -0.523100
C      2.593300    1.069700   -1.333800
C      1.272400    1.214500   -1.778800
C      0.305300    0.278400   -1.403800
N     -1.048300    0.431300   -1.824800
C     -1.464800    0.749200   -3.118500
C     -0.742800    0.939300   -4.315500
C     -1.445600    1.226000   -5.489400
C     -2.831800    1.305700   -5.486900
C     -3.548700    1.083900   -4.308400
C     -2.861800    0.789700   -3.109800
C     -3.299400    0.493600   -1.785300
C     -4.577800    0.401500   -1.187500
C     -4.715000    0.140000    0.188400
N     -6.021800    0.059800    0.797900
C     -7.087100   -0.653600    0.133800
C     -8.409000   -0.175200    0.164100
C     -9.441600   -0.868500   -0.472400
C     -9.170100   -2.053100   -1.151900
C     -7.868000   -2.543800   -1.197400
C     -6.835700   -1.850100   -0.560700
C     -6.254600    0.689300    2.076300
C     -7.015900    0.050500    3.070900
C     -7.237700    0.660200    4.308600
C     -6.703800    1.919700    4.572200
C     -5.946200    2.569600    3.600600
C     -5.721600    1.958700    2.364100
C     -3.555300   -0.022700    0.954400
C     -2.279300    0.051900    0.384700
C     -2.165700    0.285700   -0.999500
C      0.667100   -0.806300   -0.600800
C      1.992200   -0.948700   -0.175000
N      4.732100   -1.355400    0.456500
C      7.239400   -2.990000    2.519300
C      7.555800   -4.261400    3.011700
