24

C      7.495700    0.400700   -0.041700
C      6.983500   -0.462500    0.914400
C      5.600200   -0.613000    1.034700
C      4.744600    0.105300    0.193100
C      3.255400    0.008500    0.249000
C      2.562900   -0.807000    1.144800
C      1.161800   -0.837000    1.128400
C      0.442600   -0.057500    0.222700
C     -1.027500   -0.078300    0.193400
C     -1.935800   -0.790900    0.965300
C     -3.256000   -0.465900    0.551000
C     -4.541100   -0.866800    0.957600
C     -5.679000   -0.344600    0.327300
C     -7.083900   -0.502600    0.455200
C     -7.655300    0.317800   -0.491400
O     -6.697900    0.974600   -1.198600
C     -5.498100    0.571400   -0.700400
C     -4.247600    0.989700   -1.127700
C     -3.132900    0.455300   -0.484400
N     -1.790300    0.672100   -0.681000
C      1.209900    0.724500   -0.632600
N      2.565300    0.772700   -0.638500
N      5.259000    0.951200   -0.743300
C      6.599200    1.080600   -0.841300
