24

C     -7.196700   -0.059500   -0.488300
C     -6.425800   -0.069100   -1.641600
C     -5.036200   -0.057500   -1.533400
C     -4.441400   -0.036400   -0.269500
C     -2.968800   -0.023200   -0.089900
C     -2.372900   -0.002200    1.170100
C     -0.978900    0.009500    1.281300
C     -0.177100    0.000300    0.139000
C      1.290500    0.012400    0.238400
C      2.119100    0.033300    1.360300
C      3.462400    0.037400    0.927600
N      4.633600    0.055100    1.617800
C      5.752200    0.053100    0.842600
C      7.123400    0.067600    1.170300
C      7.798500    0.056700   -0.031900
O      6.929900    0.036400   -1.082100
C      5.677000    0.034200   -0.550000
N      4.528200    0.016400   -1.257500
C      3.442700    0.019000   -0.458700
N      2.138400    0.004100   -0.859100
C     -0.858000   -0.020800   -1.076300
N     -2.208800   -0.032600   -1.218000
N     -5.197700   -0.026900    0.864800
C     -6.542900   -0.038600    0.730100
