27

C      8.708800   -0.624200    0.479100
C      7.994200   -1.728800    0.034300
C      6.601800   -1.673100    0.000200
C      5.946800   -0.513400    0.414400
C      4.466800   -0.405400    0.423300
C      3.806900    0.776900    0.765900
C      2.410800    0.813800    0.777200
C      1.681200   -0.328200    0.455900
C      0.220400   -0.340400    0.477800
C     -0.473200   -0.849100    1.573500
C     -1.870800   -0.867600    1.578200
C     -2.627200   -0.376100    0.496500
C     -1.935700    0.140300   -0.605000
C     -0.522900    0.148800   -0.603700
C     -2.650200    0.651800   -1.827900
C     -3.680900    1.719200   -1.486800
C     -5.001600    1.131800   -1.059100
C     -6.171900    1.651100   -1.650600
C     -7.433500    1.164200   -1.312900
C     -7.546400    0.150600   -0.376100
C     -6.396700   -0.355600    0.229200
C     -5.109200    0.136000   -0.078100
N     -4.027100   -0.458300    0.597400
C      2.415200   -1.463300    0.123100
N      3.769500   -1.528200    0.096000
N      6.647800    0.575600    0.846300
C      7.997500    0.494600    0.868700
