26

C     -8.132600    0.142400    0.070000
C     -7.448000    1.315000    0.354500
C     -6.054300    1.312400    0.337400
C     -5.368500    0.133400    0.035100
C     -3.886500    0.068800    0.001700
C     -3.200000   -1.111800   -0.283200
C     -1.802900   -1.115500   -0.302800
C     -1.089500    0.056300   -0.038900
C      0.379700    0.094500   -0.054600
C      1.073500    1.065900   -0.778600
C      2.471200    1.086600   -0.785100
C      3.232500    0.134100   -0.065800
C      2.529300   -0.848900    0.666000
C      1.139300   -0.848200    0.656300
N      3.138500   -1.800500    1.383500
C      4.487800   -1.813100    1.402400
C      5.298800   -0.907900    0.729200
C      6.701900   -0.992100    0.801800
C      7.504000   -0.079600    0.122900
C      6.911300    0.922500   -0.632500
C      5.517300    1.010500   -0.707900
C      4.667700    0.099100   -0.030200
C     -1.857100    1.185700    0.239200
N     -3.213500    1.222600    0.263300
N     -6.040200   -1.019700   -0.245000
C     -7.391400   -0.988200   -0.221000
