25

C      6.430000    1.339000    0.747000
C      5.449600    2.043800    1.433400
C      4.110800    1.858200    1.093300
C      3.773900    0.964300    0.074200
C      2.367500    0.719400   -0.329200
C      2.022100   -0.247000   -1.277800
C      0.681200   -0.443000   -1.611500
C     -0.307900    0.332300   -1.005400
C     -1.719700    0.181400   -1.344900
C     -2.218900    0.684000   -2.565600
C     -3.568000    0.585200   -2.892400
C     -4.470100   -0.019500   -2.014000
C     -3.970000   -0.529400   -0.809000
N     -4.639400   -1.161300    0.213600
C     -3.778900   -1.516700    1.220200
C     -4.026900   -2.164900    2.423000
N     -2.998500   -2.414500    3.263000
C     -1.755300   -2.029300    2.901200
C     -1.440000   -1.378000    1.713500
C     -2.502400   -1.101600    0.837000
C     -2.620700   -0.456400   -0.446500
C      0.122800    1.275100   -0.077700
N      1.414300    1.474900    0.283800
N      4.734800    0.265100   -0.595200
C      6.026900    0.471000   -0.252200
