25

C      6.271700   -0.008700    1.507800
C      5.805500   -1.042700    0.709200
C      4.510600   -0.979400    0.197600
C      3.703700    0.121500    0.493700
C      2.317700    0.245900   -0.021000
C      1.519600    1.357300    0.256100
C      0.220600    1.420900   -0.250700
C     -0.278300    0.374000   -1.026200
C     -1.632200    0.399900   -1.565700
C     -1.882800    0.782400   -2.900500
C     -3.179300    0.822900   -3.417100
C     -4.276800    0.486800   -2.623800
C     -4.009500    0.109100   -1.308800
O     -4.956100   -0.247000   -0.402800
C     -4.312100   -0.553600    0.754400
N     -4.963300   -0.951300    1.863700
C     -4.138200   -1.215300    2.898600
C     -2.754600   -1.107300    2.879000
C     -2.123600   -0.689500    1.706700
C     -2.935400   -0.396100    0.595800
C     -2.735600    0.047400   -0.749800
C      0.583000   -0.692400   -1.260500
N      1.848800   -0.781400   -0.782600
N      4.160000    1.138300    1.279100
C      5.419300    1.049600    1.762700
