31

Si    -1.168900    5.137400    0.039100
C      0.308300    4.008300   -0.030400
C     -0.062600    2.712400   -0.050300
C      0.809800    1.577800   -0.102400
C      2.233600    1.561400   -0.144000
C      2.766900    0.279300   -0.189800
S      1.492400   -0.871700   -0.180100
C      0.266400    0.307400   -0.116800
C     -1.181800    0.003300   -0.082100
C     -1.684200   -1.304400   -0.098500
C     -3.075300   -1.539100   -0.063800
C     -3.639300   -2.860700   -0.078800
N     -2.968200   -4.026300   -0.125800
S     -4.105900   -5.233500   -0.121500
N     -5.505400   -4.343000   -0.059900
C     -5.133400   -3.054000   -0.040100
C     -6.009800   -1.947800    0.011500
C     -5.404900   -0.676600    0.024100
C     -3.998800   -0.460300   -0.011500
C     -3.478700    0.842800    0.004300
C     -2.092500    1.094300   -0.029900
C     -1.533700    2.479300   -0.013300
C     -2.261300    3.617200    0.034700
C      4.174700   -0.075000   -0.238900
S      5.413200    1.155100   -0.245400
C      6.702100    0.030000   -0.309400
C      6.167100   -1.207800   -0.323300
C      6.764200   -2.488400   -0.371000
C      5.819700   -3.516900   -0.368100
S      4.138700   -3.024800   -0.307900
C      4.772700   -1.317900   -0.285700
