25

C     -7.130200    1.231800    0.621800
C     -6.215100    2.207500    0.254200
C     -4.882800    1.851500    0.051500
C     -4.489200    0.521900    0.220800
C     -3.086900    0.081400    0.019200
C     -2.695900   -1.248900    0.173100
C     -1.361000   -1.608900   -0.028300
C     -0.415900   -0.643100   -0.383000
C      0.995400   -0.978000   -0.600400
C      1.382800   -2.009900   -1.453900
N      2.649100   -2.400300   -1.721700
C      3.593600   -1.687800   -1.074200
S      5.242400   -2.040400   -1.291500
C      5.704800   -0.803300   -0.220300
N      7.009700   -0.573600    0.039900
C      7.231200    0.434000    0.906200
C      6.251500    1.202400    1.509200
C      4.917000    0.933800    1.214000
C      4.619700   -0.112000    0.311400
C      3.374500   -0.633500   -0.194800
C      2.025700   -0.275900    0.041400
C     -0.895100    0.658600   -0.517000
N     -2.183000    1.038600   -0.326300
N     -5.387300   -0.438100    0.582200
C     -6.672700   -0.064500    0.771900
