25

C      6.831200    0.981000    0.904300
C      6.338800   -0.239000    1.344600
C      5.023900   -0.591700    1.046000
C      4.223400    0.285100    0.309900
C      2.817100   -0.033300   -0.039100
C      2.031100    0.823000   -0.811700
C      0.711800    0.474800   -1.107900
C      0.179300   -0.725100   -0.632200
C     -1.194400   -1.121200   -0.912300
C     -1.534200   -2.256200   -1.649800
N     -2.792900   -2.664100   -1.934300
C     -3.835400   -1.928100   -1.480900
C     -3.616200   -0.769900   -0.724400
C     -2.300100   -0.389500   -0.452900
N     -2.365300    0.753700    0.314600
C     -3.668700    1.131000    0.527000
C     -4.195600    2.212300    1.229800
C     -5.580200    2.283400    1.241700
N     -6.406200    1.401400    0.637500
C     -5.868300    0.356300   -0.038800
C     -4.478700    0.193900   -0.112700
C      1.032400   -1.522300    0.125500
N      2.315700   -1.208800    0.430600
N      4.705000    1.485100   -0.122400
C      5.984200    1.800800    0.181100
