24

C     -7.110600   -0.096200   -0.032200
C     -6.398500    0.375500   -1.125300
C     -5.005500    0.389300   -1.077700
C     -4.348200   -0.070600    0.066100
C     -2.868500   -0.081100    0.177000
C     -2.211300   -0.540000    1.318500
C     -0.815100   -0.526500    1.366800
C     -0.076000   -0.056900    0.280400
C      1.388400   -0.045300    0.337100
N      2.116200   -0.456400    1.367900
C      3.420200   -0.273700    1.004000
N      4.530400   -0.549000    1.730100
C      5.695900   -0.259600    1.101700
N      6.968200   -0.427000    1.577800
C      7.749000   -0.003300    0.604400
N      7.034600    0.431200   -0.481800
C      5.715100    0.275600   -0.183900
N      4.635200    0.564100   -0.940200
C      3.501600    0.260100   -0.274900
N      2.210800    0.398300   -0.681800
C     -0.810100    0.381300   -0.815900
N     -2.165500    0.381500   -0.894700
N     -5.046900   -0.534200    1.140400
C     -6.396700   -0.536200    1.067300
