52

C      0.367400   -7.850000   -0.998100
C     -0.867500   -7.212300   -0.941900
C     -0.932700   -5.822600   -0.794000
C      0.231500   -5.034700   -0.698200
C      0.161400   -3.566000   -0.540600
N      1.310800   -2.899600   -0.421300
C      1.196600   -1.579700   -0.278500
C      2.438200   -0.789000   -0.141200
C      2.414000    0.620000   -0.133600
C      3.585500    1.373000    0.003800
C      4.823800    0.737300    0.140800
N      6.017500    1.503700    0.294000
C      6.900200    1.738000   -0.811800
C      6.658900    1.237900   -2.103400
C      7.547100    1.492600   -3.154400
C      8.690700    2.255200   -2.935000
C      8.944800    2.767300   -1.665400
C      8.055700    2.512500   -0.616100
O      8.388700    3.074000    0.595300
C      7.539700    2.855600    1.656400
C      7.917300    3.447500    2.866500
C      7.131400    3.276500    4.003500
C      5.971400    2.511000    3.929900
C      5.594000    1.921200    2.718200
C      6.367700    2.088600    1.555900
C      4.870900   -0.660600    0.132200
C      3.696000   -1.409000   -0.008500
N      0.038300   -0.921900   -0.244500
C     -1.054500   -1.674700   -0.369200
C     -2.364400   -0.990200   -0.330200
C     -2.467300    0.376900   -0.003900
C     -3.703800    1.031000    0.031400
C     -4.881900    0.336300   -0.262400
N     -6.141600    1.006300   -0.236100
C     -7.020300    0.896800    0.892100
C     -6.719600    0.119600    2.024800
C     -7.606000    0.043900    3.105000
C     -8.807100    0.746900    3.075800
C     -9.121400    1.529200    1.967500
C     -8.234400    1.603800    0.888000
O     -8.629500    2.414100   -0.152000
C     -7.784200    2.526700   -1.231600
C     -8.226300    3.362900   -2.262200
C     -7.448500    3.533900   -3.404600
C     -6.232900    2.865300   -3.517500
C     -5.792100    2.029100   -2.485900
C     -6.556300    1.850800   -1.318800
C     -4.802900   -1.022100   -0.586700
C     -3.563200   -1.672500   -0.617800
N     -1.045800   -2.998500   -0.523700
C      1.466500   -5.710800   -0.758900
C      1.535400   -7.100200   -0.906800
