26

Si    -1.688800   -3.672500    1.625800
C     -0.081800   -2.793100    1.342100
C     -0.274300   -1.579300    0.787800
C      0.752500   -0.728100    0.272300
C      2.162700   -0.893900    0.351200
C      2.862200    0.109000   -0.303400
S      1.766200    1.231700   -1.004800
C      0.389400    0.397900   -0.439000
C     -1.000100    0.852300   -0.643400
C     -1.322200    1.982400   -1.379000
N     -2.568700    2.481400   -1.507300
C     -3.554000    1.896900   -0.818300
C     -4.805600    2.492300   -0.899800
C     -5.899200    2.021600   -0.176400
C     -5.734000    0.939600    0.669100
C     -4.485900    0.319300    0.755300
C     -3.369300    0.745000   -0.015500
C     -2.065600    0.148900   -0.019900
C     -1.703100   -1.182800    0.589900
C     -2.556100   -2.192300    0.876300
C      4.324900    0.255100   -0.427900
C      4.958500    1.316400   -1.071200
C      6.351900    1.343600   -1.122900
C      7.076900    0.316700   -0.534300
C      6.375300   -0.700800    0.085700
N      5.026900   -0.753400    0.151400
