64

C      0.576000   -2.215700   -5.915600
C      1.724600   -2.153100   -5.134500
C      1.624900   -2.098000   -3.738000
C      0.380100   -2.108000   -3.078800
C      0.275300   -2.045700   -1.603600
N      1.389600   -1.901900   -0.888700
C      1.238200   -1.851700    0.441900
N      2.356900   -1.395900    1.244000
C      2.346800   -1.180100    2.630000
C      1.441900   -1.564200    3.640100
C      1.648000   -1.121100    4.945800
C      2.721700   -0.301400    5.258700
C      3.627400    0.075100    4.265600
C      3.451700   -0.383100    2.942100
C      4.203900   -0.202000    1.749500
C      5.386000    0.516600    1.457400
C      5.926700    0.476800    0.164500
N      7.044100    1.295200   -0.165500
C      8.149100    0.890800   -0.916100
C      8.521100   -0.370300   -1.429400
C      9.716100   -0.483100   -2.141200
C     10.535600    0.620400   -2.329100
C     10.177700    1.863500   -1.802600
C      8.977900    2.002200   -1.073100
C      8.370900    3.099100   -0.390300
C      8.745500    4.450800   -0.220600
C      7.912000    5.324200    0.482900
C      6.705700    4.872800    0.999300
C      6.310700    3.538300    0.837000
C      7.171500    2.646100    0.162800
C      5.342800   -0.320200   -0.816300
C      4.176100   -1.037500   -0.540200
C      3.582500   -0.937200    0.737300
N      0.065800   -2.052300    1.052000
C     -1.003900   -2.120200    0.254400
N     -2.301700   -2.094700    0.864400
C     -2.634200   -2.669300    2.090700
C     -1.912900   -3.523800    2.946400
C     -2.511500   -3.952900    4.134100
C     -3.798500   -3.553700    4.464200
C     -4.521600   -2.720900    3.606200
C     -3.940300   -2.283800    2.394700
C     -4.412900   -1.473100    1.321900
C     -5.616700   -0.766500    1.108800
C     -5.788500   -0.013800   -0.062200
N     -6.977300    0.756000   -0.238300
C     -7.745500    0.818600   -1.403800
C     -7.623900    0.149100   -2.638000
C     -8.567700    0.397800   -3.633700
C     -9.622800    1.270900   -3.410700
C     -9.759200    1.915400   -2.179100
C     -8.813700    1.682700   -1.156700
C     -8.684000    2.160100    0.181100
C     -9.446400    3.056400    0.963900
C     -9.034000    3.380300    2.258400
C     -7.869300    2.835200    2.777600
C     -7.097800    1.942000    2.026600
C     -7.537000    1.587200    0.733700
C     -4.792200    0.008600   -1.035000
C     -3.589800   -0.679000   -0.840200
C     -3.409800   -1.416100    0.351400
N     -0.945200   -2.100200   -1.077200
C     -0.764300   -2.182700   -3.897900
C     -0.668800   -2.230600   -5.296600
