43

C     -9.660900    0.202800   -0.107700
C     -8.761800    0.721300    0.821900
C     -7.426500    0.926200    0.465900
C     -6.974800    0.598200   -0.820100
C     -5.583400    0.808000   -1.226000
N     -5.238800    1.501600   -2.294900
N     -3.881500    1.624500   -2.318000
C     -3.380300    0.948600   -1.302500
C     -1.945100    0.754500   -1.096200
C     -1.103000    1.872700   -1.025200
C      0.269600    1.714700   -0.821100
C      0.823100    0.432800   -0.701600
N      2.227400    0.270000   -0.480500
C      3.139600    0.237200   -1.597700
C      2.672800    0.343200   -2.927100
C      3.547900    0.324800   -4.013700
C      4.911300    0.201500   -3.797200
C      5.397200    0.088600   -2.494500
C      4.531700    0.096100   -1.376700
N      5.043300   -0.032000   -0.033600
C      6.449000   -0.185800    0.191300
C      7.042100   -1.455500    0.128200
C      8.410500   -1.605300    0.356700
C      9.193600   -0.488800    0.653800
C      8.612800    0.778100    0.717500
C      7.245700    0.931000    0.486100
C      4.129800   -0.007400    1.083100
C      4.592800   -0.140100    2.412200
C      3.720400   -0.106800    3.499700
C      2.361400    0.057800    3.284600
C      1.877800    0.183600    1.982200
C      2.740200    0.148900    0.862800
C     -0.012600   -0.688100   -0.801900
C     -1.385700   -0.528300   -1.004400
N     -4.427100    0.410200   -0.553000
C     -4.331600   -0.375300    0.632700
C     -3.368000   -0.074300    1.606000
C     -3.275900   -0.847600    2.765300
C     -4.141800   -1.920800    2.961000
C     -5.102000   -2.224000    1.998100
C     -5.199500   -1.456200    0.835400
C     -7.895200    0.101200   -1.753600
C     -9.229900   -0.102800   -1.397300
