31

C      7.159700    1.593700    0.321600
C      6.490000    1.176800    1.470500
C      5.153300    0.779900    1.394700
C      4.471300    0.792600    0.168200
C      5.158300    1.217900   -0.979300
C      6.494900    1.614800   -0.903100
C      3.058900    0.379300    0.089100
C      2.084300    1.374300    0.270300
C      0.720400    1.092700    0.215500
C     -0.195100    2.135500    0.405700
C     -1.574600    1.920000    0.363000
C     -2.059900    0.624100    0.123100
C     -1.123900   -0.396200   -0.062900
O     -1.788600   -1.567500   -0.280200
C     -3.118000   -1.320300   -0.237500
C     -4.095500   -2.293300   -0.419000
C     -5.423200   -1.871800   -0.344200
C     -5.755100   -0.532700   -0.098000
C     -7.100200   -0.138800   -0.028300
C     -7.447300    1.190400    0.216000
C     -6.454500    2.147600    0.394600
C     -5.108700    1.781200    0.329900
C     -4.733300    0.442700    0.084000
C     -3.365400    0.023600    0.009700
C      0.299800   -0.239800   -0.031000
C      1.278200   -1.290800   -0.222500
C      0.951600   -2.650200   -0.473700
C      1.917600   -3.642500   -0.654400
C      3.256800   -3.311900   -0.590700
C      3.620800   -1.990600   -0.346400
C      2.663000   -0.962300   -0.159000
