29

C     -6.069200   -1.273000   -0.253700
C     -5.401500   -1.356600    0.966600
C     -4.068700   -0.950900    1.063100
C     -3.388700   -0.454300   -0.059600
C     -4.073500   -0.379300   -1.282200
C     -5.406200   -0.785100   -1.378100
C     -1.982600   -0.028700    0.041300
C     -0.991300   -1.000400   -0.197500
C      0.342400   -0.613500   -0.105900
O      1.385100   -1.462000   -0.314800
C      2.501600   -0.707100   -0.133100
C      2.169300    0.575000    0.180000
S      3.604500    1.552200    0.415100
C      4.641300    0.191700    0.081700
C      6.052200    0.129000    0.063600
C      6.706700   -1.085400   -0.233500
C      5.897900   -2.215700   -0.507200
N      6.339900   -3.451500   -0.809100
S      4.978600   -4.404900   -1.038700
N      3.763200   -3.284000   -0.763300
C      4.442100   -2.181500   -0.496100
C      3.871500   -0.916500   -0.186800
C      0.746000    0.675200    0.207300
C     -0.240400    1.666600    0.450900
C      0.140100    2.987600    0.772100
C     -0.824400    3.963600    1.011900
C     -2.172300    3.636900    0.935100
C     -2.561300    2.332200    0.617900
C     -1.616900    1.310000    0.366800
