23

C      6.254600    0.424700   -0.348400
C      5.425900    1.428200    0.146000
C      4.059500    1.187800    0.314600
C      3.498000   -0.059900   -0.006200
C      4.352400   -1.058100   -0.504900
C      5.718800   -0.818200   -0.674700
C      2.060000   -0.311600    0.173400
C      1.598500   -1.415700    0.908700
N      0.303600   -1.759000    1.142500
C     -0.597600   -0.909900    0.587500
C     -0.227800    0.206000   -0.151100
C      1.099000    0.545500   -0.383900
O     -1.328400    0.876600   -0.588300
C     -2.414200    0.186000   -0.126100
C     -2.012500   -0.925200    0.605800
C     -3.000300   -1.741300    1.150600
N     -4.317100   -1.445100    0.962300
C     -4.686200   -0.361600    0.248500
C     -6.025000   -0.070400    0.063800
C     -6.387100    1.048700   -0.673500
N     -5.504800    1.899900   -1.240900
C     -4.198400    1.617300   -1.061900
C     -3.760300    0.511700   -0.333800
