46

C     -5.302200    1.419700    4.832700
C     -4.665700    0.285900    4.333300
C     -4.577700    0.082700    2.953600
C     -5.124900    1.010000    2.048600
N     -5.022500    0.804900    0.622400
C     -6.136400    1.128300   -0.239000
C     -5.932500    1.738000   -1.490100
C     -7.010700    2.052800   -2.322100
C     -8.312400    1.764600   -1.917700
C     -8.537100    1.161200   -0.682900
C     -7.458900    0.845200    0.149100
C     -3.792800    0.299900    0.055600
C     -2.550600    0.746900    0.520400
C     -1.346800    0.273000   -0.015600
C     -1.390700   -0.693700   -1.038900
C     -2.612300   -1.130000   -1.554700
C     -3.813200   -0.641000   -0.990700
C     -2.337900   -2.032600   -2.621800
C     -3.165200   -2.767100   -3.499600
C     -2.595300   -3.625200   -4.443300
C     -1.216600   -3.771300   -4.512200
C     -0.376000   -3.051800   -3.658800
C     -0.950800   -2.153500   -2.733300
N     -0.377700   -1.321600   -1.768300
C      1.022100   -1.130800   -1.569800
C      1.553500   -1.101000   -0.280100
C      2.924800   -0.889700   -0.095100
C      3.805200   -0.703200   -1.179400
C      5.249300   -0.465400   -0.941700
C      6.234700   -0.675200   -1.896100
C      7.560200   -0.408500   -1.567700
C      7.887300    0.056400   -0.290200
C      9.217900    0.327800    0.041800
C      9.535400    0.784300    1.312600
C      8.524900    0.967000    2.261600
C      8.842800    1.421700    3.549000
C      7.840200    1.599600    4.491800
C      6.546700    1.316500    4.112600
N      6.206800    0.878000    2.882900
C      7.171300    0.696600    1.943200
C      6.851300    0.241200    0.651100
N      5.567400   -0.022900    0.300500
C      3.241000   -0.735900   -2.467600
C      1.869800   -0.951400   -2.666400
C     -5.764700    2.146900    2.574100
C     -5.853000    2.349100    3.954400
