19

C      4.075500   -1.235600   -0.182100
C      3.678400   -0.289500    0.759700
C      2.342600    0.115900    0.824200
C      1.380500   -0.418500   -0.051300
N     -0.000000    0.000000    0.015700
C     -1.057300   -0.971600   -0.137700
C     -0.961900   -2.244900    0.451600
C     -1.985300   -3.184900    0.303500
C     -3.121500   -2.868300   -0.437200
C     -3.236200   -1.613100   -1.029700
C     -2.213200   -0.672800   -0.880900
C     -0.323200    1.390100    0.236200
C     -1.379500    1.761900    1.086900
C     -1.691900    3.107200    1.300700
C     -0.954000    4.103900    0.666800
C      0.096000    3.757700   -0.180200
C      0.409000    2.412500   -0.393200
C      1.803000   -1.372700   -0.994000
C      3.139000   -1.777400   -1.059100
