22

C      6.420800    0.530800    0.336700
C      5.912900   -0.396300    1.233000
C      4.536900   -0.630000    1.275500
C      3.686300    0.070400    0.416900
N      4.191400    0.978800   -0.460200
C      5.526300    1.188300   -0.483500
C      2.206200   -0.102100    0.380000
C      1.520200   -0.996200    1.215700
C      0.124700   -1.147400    1.168900
C     -0.637200   -0.386600    0.260000
C      0.021300    0.509800   -0.582100
C      1.426000    0.652100   -0.524700
S     -1.050300    1.369400   -1.640000
C     -2.406400    0.539100   -0.969700
C     -3.816000    0.465100   -1.099400
N     -4.602500    1.162600   -1.945600
C     -5.915800    0.866900   -1.828900
C     -6.462400   -0.056300   -0.942300
C     -5.625000   -0.763700   -0.078300
C     -4.264800   -0.474800   -0.180900
N     -3.173000   -0.963100    0.491100
C     -2.040400   -0.341900    0.006900
