30

Si    -2.199700    4.533300    0.393800
C     -3.630000    3.575500   -0.284100
C     -3.338000    2.263200   -0.350500
C     -4.243900    1.210400   -0.629400
C     -5.626500    1.197900   -0.898400
C     -6.005900   -0.126300   -0.904100
N     -4.893500   -0.890300   -0.635600
C     -3.782200   -0.090600   -0.555600
C     -2.433600   -0.563700   -0.332400
C     -1.509400    0.430400   -0.018000
C     -0.161500   -0.042800    0.203900
N      0.947200    0.755600    0.294600
C      2.077300    0.003700    0.555600
C      1.685600   -1.322800    0.549700
C      0.302900   -1.340300    0.274600
C     -0.600900   -2.394600   -0.002800
C     -0.306400   -3.706200   -0.069700
Si    -1.737000   -4.666200   -0.744300
C     -2.678700   -3.049900   -0.904600
C     -1.981200   -1.996600   -0.418100
C      3.368400    0.604100    0.742700
S      3.521800    2.234000    1.327500
C      5.245100    2.197300    1.290800
C      5.690300    0.987500    0.834900
C      7.024300    0.513200    0.625400
C      7.109700   -0.744600    0.141600
Si     5.373300   -1.504300   -0.116400
C      4.619700    0.099900    0.528700
C     -1.959600    1.863200    0.067700
C     -1.261700    2.915300    0.556300
