16

C     -4.642500   -0.364200   -0.637500
C     -3.444700   -0.605700   -1.302700
C     -2.222400   -0.333100   -0.676900
C     -2.170900    0.184600    0.621900
N     -0.980300    0.481700    1.310900
C      0.307600    0.348200    0.913000
N      0.752900   -0.101000   -0.237700
C      2.135100   -0.089200   -0.275200
C      2.936600   -0.504600   -1.358000
C      4.330200   -0.437900   -1.258100
C      4.930700    0.036000   -0.096000
C      4.157000    0.453800    0.991500
C      2.758400    0.381800    0.878400
S      1.551700    0.813400    2.021900
C     -3.394400    0.420600    1.274600
C     -4.618100    0.150100    0.653900
