22

C      6.157500    0.742000   -0.745600
C      5.330200    1.398900    0.166900
C      3.950600    1.194200    0.130900
C      3.406800    0.317500   -0.810100
O      2.050000    0.135700   -0.915400
C      1.416300   -0.488000    0.152200
N      2.126500   -1.173600    1.079500
C      1.450700   -1.777500    2.073300
N      0.126600   -1.798500    2.274100
C     -0.525100   -1.118000    1.321600
O     -1.880200   -0.994700    1.291400
C     -2.208100   -0.247300    0.192900
C     -3.633100    0.000400   -0.019600
C     -4.071100    0.758000   -1.116800
C     -5.432800    0.998800   -1.326100
C     -6.377000    0.485500   -0.441000
C     -5.961400   -0.268300    0.653000
C     -4.600100   -0.508500    0.861400
C     -1.054400    0.109000   -0.480700
C      0.029300   -0.448900    0.244700
C      4.228000   -0.323400   -1.737300
C      5.607100   -0.116400   -1.698800
