22

C      6.293900    0.641500   -0.141900
C      6.277300   -0.750400   -0.205100
C      5.070900   -1.457500   -0.208300
C      3.886700   -0.713800   -0.145600
N      2.575100   -1.128300   -0.132900
C      1.703100   -0.059400   -0.062900
C      0.234000   -0.195100   -0.033600
C     -0.390900   -1.450600   -0.075900
C     -1.789200   -1.585700   -0.048300
C     -2.596000   -0.436000    0.023800
C     -1.967900    0.809000    0.065600
C     -0.572400    0.956100    0.038600
N     -2.960200    1.760400    0.133200
C     -4.190600    1.168300    0.135800
N     -5.356200    1.838900    0.194700
C     -6.432900    1.020100    0.183300
C     -6.396400   -0.367200    0.118900
C     -5.159000   -1.010100    0.059600
C     -4.005500   -0.206900    0.068400
C      2.509000    1.071100   -0.030700
C      3.873000    0.674500   -0.081900
C      5.098600    1.367400   -0.079800
