31

Si    -2.441000    4.123600    1.263800
C     -3.788700    3.006400    0.644800
C     -3.298500    1.797300    0.308200
C     -4.070000    0.640700   -0.003800
C     -5.444800    0.464300   -0.262300
C     -5.625300   -0.876600   -0.526400
N     -4.403500   -1.500000   -0.432600
C     -3.445200   -0.593600   -0.058100
C     -2.008700   -0.795900    0.090600
C     -1.333500   -2.016500    0.182100
C     -1.864400   -3.275400    0.346400
N     -0.815200   -4.165600    0.415700
C      0.380300   -3.494000    0.317000
C      0.093800   -2.154100    0.190400
C      1.029400   -1.101700    0.048300
C      2.469000   -1.317000   -0.004100
C      3.411500   -0.294900   -0.230000
C      4.842800   -0.534000   -0.291200
N      5.394400   -1.560200   -0.910200
C      6.764700   -1.533500   -0.744800
C      7.249300   -0.504000    0.029900
S      5.948300    0.464800    0.577700
C      2.763200    0.911800   -0.488900
C      3.324000    2.078900   -0.945900
O      2.347100    2.991100   -1.208900
C      1.151400    2.399300   -0.928900
C      1.341900    1.137700   -0.416700
C      0.338000    0.184200   -0.060500
C     -1.122100    0.338800    0.113600
C     -1.812400    1.648200    0.421800
C     -1.233700    2.717300    1.012900
