19

C      4.815100    1.401300   -0.491700
C      5.085200    0.138300    0.031500
C      4.049700   -0.736700    0.374800
C      2.736900   -0.294700    0.172500
N      1.538200   -0.927600    0.413800
C      0.471000   -0.125200    0.067300
C     -0.935200   -0.503100    0.200500
C     -1.378300   -1.718700    0.692900
N     -2.689200   -2.032800    0.801500
C     -3.564900   -1.101600    0.405100
N     -4.871100   -1.384600    0.500800
C     -5.733400   -0.430700    0.095400
C     -5.304200    0.781900   -0.396100
N     -3.995600    1.088800   -0.501700
C     -3.117400    0.156900   -0.105000
N     -1.812700    0.441200   -0.201300
C      1.023200    1.055000   -0.409000
C      2.438300    0.960600   -0.348000
C      3.495600    1.825600   -0.686700
