25

C      6.596500    0.353400    0.713600
C      6.549600   -0.767400   -0.100600
C      5.321500   -1.210200   -0.594600
C      4.112300   -0.549400   -0.292000
C      4.167300    0.569700    0.550900
C      5.415200    1.017700    1.034100
C      2.941100    1.356600    0.931900
C      1.834400    0.473800    1.492800
C      0.997400   -0.156800    0.410600
C     -0.408500   -0.035900    0.507900
C     -1.277700   -0.601800   -0.436600
C     -2.736900   -0.455000   -0.315800
C     -3.583400   -1.568500   -0.354600
C     -4.967700   -1.415300   -0.237200
C     -5.543900   -0.163700   -0.080000
N     -6.883200   -0.056300    0.029600
C     -7.373700    1.192700    0.179900
C     -6.557400    2.303800    0.220500
N     -5.214300    2.215500    0.112800
C     -4.704500    0.976200   -0.038300
C     -3.328800    0.809000   -0.156500
C     -0.704900   -1.308600   -1.495500
C      0.683600   -1.444800   -1.594800
C      1.558800   -0.884900   -0.644700
N      2.935400   -1.086400   -0.845100
