20

C     -5.096900    0.457500   -0.776800
C     -4.975200   -0.742500   -0.093900
C     -3.724800   -1.142400    0.380600
C     -2.567300   -0.359100    0.188200
C     -2.696600    0.842200   -0.523200
C     -3.967200    1.244400   -0.986900
C     -1.530800    1.760300   -0.778800
C     -0.347500    1.035600   -1.406100
C      0.518800    0.351400   -0.380300
C      1.912200    0.591400   -0.426000
C      2.796600   -0.007900    0.478900
C      4.219400    0.264400    0.402200
C      5.042600    0.628800   -0.687600
N      6.317300    0.803200   -0.329300
O      6.347300    0.554500    1.033100
C      5.098700    0.237800    1.459500
C      2.271300   -0.870900    1.438700
C      0.896400   -1.125400    1.480300
C     -0.002300   -0.532800    0.572200
N     -1.361500   -0.862100    0.710500
