27

C     -7.440600   -0.286800   -0.126800
C     -6.821900   -1.491400    0.177100
C     -5.425900   -1.570300    0.218400
C     -4.600900   -0.446800   -0.042800
C     -5.257500    0.762900   -0.348500
C     -6.662600    0.837100   -0.388800
C     -4.469000    1.877100   -0.608000
N     -3.119300    1.887800   -0.589300
C     -2.486000    0.743900   -0.300000
C     -1.093900    0.773000   -0.285100
C     -0.293200   -0.347700    0.001100
C      1.196000   -0.306100    0.014500
C      1.938500    0.846500   -0.255100
C      3.330100    0.724400   -0.203300
N      4.317300    1.657800   -0.415500
C      5.561600    1.094700   -0.258400
C      6.831800    1.655100   -0.375100
C      7.881300    0.778800   -0.144500
N      7.744900   -0.527600    0.172100
C      6.497800   -1.049400    0.279800
C      5.368700   -0.248200    0.066400
C      3.958300   -0.479100    0.100400
C      3.153900   -1.590100    0.358900
N      1.801300   -1.488100    0.312600
C     -0.981500   -1.536400    0.280400
C     -2.379400   -1.596400    0.272900
C     -3.165300   -0.459900   -0.016900
