26

C     -7.410100    0.077400   -0.125300
C     -6.808000   -1.034500   -0.697200
C     -5.413400   -1.142300   -0.717900
C     -4.572600   -0.141500   -0.167100
C     -5.213300    0.976100    0.406900
C     -6.616900    1.079800    0.425100
C     -4.411300    1.970300    0.953300
N     -3.062400    1.946100    0.975900
C     -2.443500    0.889900    0.433700
C     -1.054100    0.878400    0.463900
C     -0.287200   -0.169100   -0.070000
C      1.183300   -0.142200   -0.014500
C      1.860000    0.077600    1.192100
C      3.260200    0.102100    1.242200
C      4.044400   -0.095300    0.092400
C      5.518900   -0.070100    0.172500
C      6.354900   -0.772000   -0.697600
N      7.711500   -0.746000   -0.626700
C      8.217500    0.015200    0.365600
C      7.409200    0.711300    1.244800
N      6.058100    0.681800    1.170900
C      3.358800   -0.304300   -1.116400
C      1.957300   -0.329900   -1.168000
C     -0.971000   -1.236800   -0.653200
C     -2.367800   -1.249400   -0.696000
C     -3.137400   -0.190800   -0.156100
