23

C      6.049400   -0.354700    0.336800
C      5.495300   -0.656800   -0.899100
C      4.106500   -0.640000   -1.066400
C      3.224000   -0.320400   -0.003100
C      3.816400   -0.017900    1.240500
C      5.214300   -0.036200    1.403600
C      2.972600    0.298500    2.298000
N      1.625700    0.337600    2.224000
C      1.053100    0.053300    1.047800
C     -0.334500    0.099100    0.985800
C     -1.056800   -0.179900   -0.185000
C     -2.529100   -0.123800   -0.205500
C     -3.289200   -0.824400    0.753500
C     -4.691900   -0.800300    0.770700
C     -5.305800   -0.039900   -0.221500
N     -6.609700    0.226500   -0.530400
N     -6.718200    1.030100   -1.601000
N     -5.487700    1.309700   -2.013900
C     -4.605100    0.666800   -1.187200
C     -3.203400    0.631400   -1.187100
C     -0.328100   -0.513700   -1.327700
C      1.068200   -0.565500   -1.291900
C      1.792300   -0.284800   -0.108200
