23

C     -5.946100    0.430400   -1.777100
C     -6.573900   -0.120400   -0.665400
C     -5.810400   -0.541600    0.423300
C     -4.412300   -0.420500    0.408200
C     -3.771400    0.119700   -0.719500
C     -4.555600    0.554300   -1.800700
N     -2.377900    0.295600   -0.777800
C     -1.437100   -0.104400    0.187500
C     -0.071100    0.122200   -0.061400
C      0.912100   -0.219700    0.878500
C      2.329700    0.011900    0.605200
C      3.345600    0.457600    1.433900
C      4.555000    0.499900    0.686900
C      5.875200    0.864800    0.975600
N      6.835400    0.788400    0.020300
C      6.494200    0.353000   -1.212800
C      5.218100   -0.030700   -1.598400
C      4.251400    0.059900   -0.599400
N      2.908100   -0.232500   -0.621600
C      0.512700   -0.780000    2.093900
C     -0.840400   -1.000700    2.360600
C     -1.820200   -0.663500    1.417300
S     -3.522300   -0.976600    1.851900
