26

C     -6.848700   -2.173500   -1.121100
C     -7.585300   -1.263100   -0.371500
C     -6.928000   -0.261300    0.342700
C     -5.528800   -0.157300    0.309000
C     -4.780700   -1.062100   -0.463000
C     -5.456400   -2.077000   -1.160400
N     -3.375600   -1.032100   -0.502500
C     -2.539100   -0.070300    0.092000
C     -1.148700   -0.172700   -0.096400
C     -0.248000    0.726000    0.501400
C      1.201400    0.604900    0.281600
C      1.740100    0.598500   -1.012100
C      3.122100    0.485700   -1.223100
C      4.020600    0.369000   -0.148700
C      5.478800    0.243900   -0.346100
C      6.061500   -0.333000   -1.475800
N      7.403000   -0.444500   -1.659600
C      8.160200    0.043400   -0.655200
C      7.605200    0.610300    0.476800
N      6.268000    0.719200    0.656000
C      3.471200    0.385700    1.145300
C      2.091000    0.499200    1.357900
C     -0.772700    1.737200    1.315700
C     -2.149700    1.842900    1.527700
C     -3.037600    0.941400    0.926700
S     -4.777200    1.149300    1.265300
