23

C     -5.661200   -1.540200   -1.566800
C     -6.327000   -0.610700   -0.775600
C     -5.595900    0.278300    0.012500
C     -4.192800    0.249600    0.012000
C     -3.514500   -0.674600   -0.800400
C     -4.265400   -1.575400   -1.573500
N     -2.112300   -0.775600   -0.812400
C     -1.203600    0.060100   -0.139100
C      0.175000   -0.164400   -0.305900
C      1.141000    0.604000    0.366900
C      2.578700    0.357700    0.168400
C      3.142900    0.402100   -1.122600
C      4.507300    0.175800   -1.357000
C      5.286500   -0.098800   -0.235400
N      6.614600   -0.364800   -0.055600
N      6.914900   -0.571600    1.236800
N      5.790500   -0.444300    1.931100
C      4.779400   -0.153800    1.054300
C      3.413200    0.075700    1.269100
C      0.694400    1.607700    1.235100
C     -0.671300    1.833200    1.425000
C     -1.625100    1.062100    0.748100
S     -3.345200    1.418000    1.062200
