27

C      7.043900   -2.147500    0.783600
C      7.785000   -1.051200    0.356400
C      7.129900    0.087300   -0.113000
C      5.728100    0.142300   -0.153700
C      4.974000   -0.954600    0.296400
C      5.649000   -2.101100    0.746800
N      3.569100   -0.973500    0.239900
C      2.730000    0.091600   -0.133900
C      1.336500   -0.093100   -0.079000
C      0.436100    0.910100   -0.478200
C     -1.018100    0.696100   -0.402400
C     -1.825000    0.846700   -1.532200
C     -3.209400    0.642500   -1.470100
C     -3.834200    0.276400   -0.251700
C     -3.021600    0.129500    0.870900
C     -1.626300    0.333500    0.811100
S     -3.934000   -0.311300    2.254800
C     -5.416900   -0.317800    1.393100
C     -6.693500   -0.612100    1.913300
C     -7.799800   -0.569400    1.062900
C     -7.644800   -0.241900   -0.275400
C     -6.376200    0.049200   -0.786000
C     -5.229700    0.015000    0.051000
C      0.965100    2.116100   -0.953900
C      2.346600    2.309400   -1.032800
C      3.234300    1.302100   -0.632900
S      4.980700    1.636500   -0.782300
