24

C      6.425200   -0.337600    1.127700
C      6.888700    0.188000   -0.073300
C      5.978200    0.608600   -1.042600
C      4.596200    0.512900   -0.817400
C      4.122300    0.001200    0.402300
C      5.052000   -0.436100    1.360000
N      2.750200   -0.156100    0.667900
C      1.683800    0.260800   -0.148500
C      0.366300    0.061900    0.304200
C     -0.751200    0.413900   -0.473900
C     -2.118400    0.207500    0.023800
C     -2.530500    0.679100    1.266500
N     -3.772500    0.515400    1.778700
C     -4.668200   -0.147300    1.021300
C     -5.957200   -0.344300    1.491100
C     -6.901700   -1.026000    0.727400
C     -6.513600   -1.498700   -0.510500
N     -5.272800   -1.334100   -1.014400
C     -4.375300   -0.670100   -0.255600
C     -3.085000   -0.475300   -0.727100
C     -0.519100    0.963000   -1.741500
C      0.782600    1.150800   -2.213600
C      1.887400    0.797600   -1.428500
S      3.509500    1.065100   -2.121300
