28

Si    -1.770100    4.498500    0.580900
C     -2.833200    2.984500    0.805000
C     -2.161900    1.846800    0.519400
C     -2.762500    0.481700    0.489900
C     -4.192700    0.300600    0.673800
C     -4.892200   -0.905300    0.450400
C     -4.023700   -1.862600   -0.039200
C     -4.376800   -3.100000   -0.505200
O     -3.273400   -3.719700   -1.016800
C     -2.217300   -2.864000   -0.864500
C     -2.610100   -1.726100   -0.201200
C     -1.861900   -0.587200    0.140800
C     -0.413000   -0.396900    0.052300
C      0.599100   -1.366200    0.190000
C      0.479800   -2.652500    0.666400
N      1.729200   -3.230000    0.654700
C      2.668100   -2.307100    0.265300
C      2.007200   -1.130000    0.002700
C      2.577800    0.105200   -0.314600
C      1.592900    1.122300   -0.306700
C      0.177800    0.906600   -0.089700
C     -0.740400    2.063100    0.130100
C     -0.374400    3.363700    0.091900
C      3.988300    0.356800   -0.516500
C      4.805100    1.447500   -0.284700
C      6.100400    1.091900   -0.733500
C      5.994300   -0.187200   -1.223500
O      4.720000   -0.637800   -1.101700
