24

C     -6.636600    0.478900   -0.178400
C     -6.108000    1.475000   -1.002300
C     -4.725700    1.594000   -1.158000
C     -3.876500    0.714600   -0.487900
C     -4.404200   -0.279900    0.334600
C     -5.784200   -0.400600    0.491600
O     -3.607300   -1.167300    1.013200
C     -2.257600   -1.009200    0.827800
C     -1.407200   -1.885200    1.494800
C     -0.022600   -1.764100    1.337100
C      0.532200   -0.767600    0.512200
C      1.987900   -0.642900    0.347800
C      2.790900   -1.732200    0.022600
N      4.133800   -1.678400   -0.138300
C      4.725800   -0.479500    0.025600
C      6.098200   -0.361300   -0.127800
C      6.734200    0.866900    0.036500
C      5.955300    1.961000    0.356600
N      4.616900    1.900400    0.517200
C      4.023500    0.699100    0.352600
C      2.649600    0.582400    0.507800
C     -0.347700    0.106700   -0.149900
C     -1.729800   -0.016100    0.008000
O     -2.525800    0.871200   -0.672400
