24

C     -6.604000    0.183900   -0.168300
C     -6.137600    1.431800   -0.587800
C     -4.765700    1.665100   -0.699000
C     -3.864300    0.647500   -0.389700
C     -4.329900   -0.598300    0.028900
C     -5.699400   -0.833600    0.140800
O     -3.480300   -1.629100    0.343200
C     -2.143300   -1.351200    0.216000
C     -1.241000   -2.365600    0.520400
C      0.133100   -2.130100    0.406400
C      0.625300   -0.879700   -0.012300
C      2.069300   -0.634700   -0.128400
C      2.912300   -1.487300   -0.832100
N      4.250500   -1.321000   -0.972100
C      4.831200   -0.264200   -0.404400
N      6.149000   -0.111600   -0.549500
C      6.751700    0.954200    0.021200
C      6.086800    1.913100    0.757300
C      4.717800    1.764800    0.914800
C      4.071000    0.666100    0.330200
C      2.685800    0.469500    0.461400
C     -0.306100    0.129400   -0.314100
C     -1.677500   -0.107600   -0.200300
O     -2.526000    0.924600   -0.514100
