24

C     -6.466700   -0.226600    0.553100
C     -6.251200   -0.067900   -0.817700
C     -4.950200    0.023500   -1.315900
C     -3.868300   -0.044300   -0.439200
C     -4.083500   -0.202700    0.929200
C     -5.381600   -0.294200    1.428900
O     -3.049500   -0.274400    1.828500
C     -1.792600   -0.179700    1.290100
C     -0.709800   -0.246300    2.155800
C      0.591300   -0.153600    1.646800
C      0.849500    0.007300    0.266400
C      2.244700    0.101300   -0.231500
C      2.602700    0.259700   -1.563900
N      3.885600    0.342800   -1.992200
C      4.838900    0.265200   -1.059500
N      6.118200    0.344200   -1.451900
C      7.057800    0.262800   -0.488600
C      6.730200    0.105800    0.839600
N      5.450400    0.024000    1.256300
C      4.498600    0.102500    0.315700
N      3.220200    0.023500    0.707900
C     -0.273700    0.070800   -0.581600
C     -1.575100   -0.021700   -0.073700
O     -2.608600    0.050200   -0.975500
