23

C      6.515400    0.358900    0.074200
C      6.079100    1.517100    0.721400
C      4.713000    1.761800    0.873000
C      3.787400    0.845600    0.375800
C      4.222800   -0.310600   -0.270200
C      5.586400   -0.557200   -0.422800
O      3.348600   -1.240000   -0.775300
C      2.018200   -0.954500   -0.601500
C      1.092400   -1.868400   -1.097400
C     -0.276100   -1.622000   -0.944800
C     -0.730900   -0.461100   -0.295900
C     -2.154300   -0.179000   -0.122900
N     -2.728400    0.859600    0.459600
C     -4.070100    0.604800    0.333900
C     -5.190800    1.333900    0.751200
C     -6.462300    0.807900    0.474500
C     -6.611000   -0.411400   -0.199700
C     -5.499700   -1.151200   -0.622800
C     -4.260500   -0.595700   -0.329300
O     -3.032300   -1.107400   -0.627300
C      0.217900    0.448300    0.197200
C      1.582500    0.200300    0.043800
O      2.456300    1.130100    0.549100
