22

C     -3.512300    2.711000   -0.233600
C     -2.135000    2.831600   -0.043000
C     -1.317200    1.696100    0.055700
C     -1.901500    0.416700   -0.046300
C     -3.280400    0.346200   -0.219900
C     -4.118600    1.455100   -0.323400
O     -3.692700   -0.947700   -0.265200
C     -2.586500   -1.724600   -0.119300
C     -2.597900   -3.119000   -0.089400
C     -1.366200   -3.757300    0.069900
C     -0.186200   -3.019900    0.175800
C     -0.203400   -1.614600    0.126600
C      1.033700   -0.856000    0.187800
C      1.978600   -0.753300    1.191100
C      3.019000    0.104600    0.737800
C      4.206800    0.587700    1.299300
N      5.015200    1.416900    0.592700
C      4.654700    1.765300   -0.662500
C      3.502700    1.341100   -1.308100
C      2.689900    0.492700   -0.560100
N      1.496100   -0.112700   -0.874700
C     -1.439700   -0.940400   -0.005400
