25

C     -4.290600   -0.972000    2.369700
C     -2.896800   -0.952600    2.444700
C     -2.119400   -0.568300    1.342300
C     -2.764000   -0.197200    0.144700
C     -4.154300   -0.231300    0.116200
C     -4.953600   -0.608700    1.193900
O     -4.618000    0.152700   -1.102500
C     -3.532600    0.437900   -1.870800
C     -3.592000    0.868800   -3.195100
C     -2.374600    1.114300   -3.831700
C     -1.165000    0.931200   -3.158700
C     -1.125700    0.494400   -1.817700
C      0.143100    0.303100   -1.121000
C      0.711800    1.336200   -0.368800
C      1.924500    1.145500    0.304300
C      2.617800   -0.077100    0.244500
C      3.896600   -0.251800    0.961400
C      4.911300   -1.111500    0.537400
N      6.086100   -1.275900    1.199500
C      6.220700   -0.534200    2.318400
C      5.232900    0.330300    2.752100
N      4.063400    0.491100    2.089700
C      2.033500   -1.108200   -0.512500
C      0.819200   -0.920700   -1.186200
C     -2.352900    0.241100   -1.156500
