26

C     -3.928800   -2.960300    1.204200
C     -2.540100   -2.817700    1.191500
C     -1.941200   -1.617100    0.782800
C     -2.761700   -0.544000    0.379600
C     -4.139800   -0.730800    0.410400
C     -4.764200   -1.910700    0.811100
O     -4.784900    0.392600   -0.001500
C     -3.830100    1.313800   -0.301500
C     -4.091700    2.604200   -0.759200
C     -2.986200    3.416100   -1.017000
C     -1.687900    2.941000   -0.821900
C     -1.443600    1.630500   -0.359700
C     -0.081700    1.137500   -0.163200
C      0.591600    1.380100    1.041800
C      1.894900    0.911800    1.258000
C      2.545400    0.182800    0.243400
C      1.863400   -0.046600   -0.954000
C      0.561700    0.417000   -1.185100
N      2.705500   -0.770300   -1.767100
C      3.891500   -1.009900   -1.134500
N      4.915600   -1.695300   -1.675600
C      5.978400   -1.792900   -0.844400
C      6.056900   -1.262900    0.437400
C      4.963900   -0.561300    0.948200
C      3.831400   -0.429000    0.126100
C     -2.555100    0.794300   -0.089900
