23

C     -3.419700    2.656100    1.433600
C     -2.041700    2.747000    1.230500
C     -1.321600    1.680100    0.673100
C     -2.008100    0.502000    0.314800
C     -3.380500    0.455900    0.537800
C     -4.123300    1.498600    1.088900
O     -3.889600   -0.741800    0.146200
C     -2.852100   -1.479600   -0.332000
C     -2.967400   -2.776900   -0.828100
C     -1.794600   -3.384700   -1.277800
C     -0.573800   -2.709100   -1.228200
C     -0.477900   -1.394400   -0.724800
C      0.801900   -0.693100   -0.683700
C      1.192600    0.146500   -1.730100
C      2.419800    0.811400   -1.678300
C      3.278800    0.656800   -0.599400
N      4.453300    1.317500   -0.585100
C      5.239200    1.119900    0.495000
C      4.868800    0.290200    1.532700
N      3.696000   -0.379000    1.536700
C      2.896900   -0.195700    0.466500
C      1.673200   -0.851800    0.403800
C     -1.658800   -0.764300   -0.259400
