29

Si     1.324600    2.618100   -3.373600
C      2.744300    2.230900   -2.239600
C      2.387800    1.394200   -1.239700
C      3.343400    0.791800   -0.269600
C      4.749600    1.115700   -0.326900
C      5.754200    0.475100    0.422300
C      5.234300   -0.565800    1.179000
C      6.057100   -1.392000    1.904800
S      5.166500   -2.649300    2.650500
C      3.683800   -2.078900    1.990600
C      3.829800   -0.905400    1.281600
C      2.793800   -0.182300    0.632600
C      1.331600   -0.353900    0.809900
C      0.780100   -0.912500    1.959400
N     -0.521100   -1.143700    2.208700
C     -1.382500   -0.730700    1.250700
C     -2.792600   -0.909500    1.349000
C     -3.480400   -0.369100    0.286700
S     -2.395200    0.346400   -0.816600
C     -0.979800   -0.065400    0.087200
C      0.408300    0.162200   -0.138300
C      0.947300    1.001300   -1.246600
C      0.274700    1.512700   -2.301000
C     -4.926100   -0.371300    0.033300
C     -5.707000   -1.487600    0.354700
C     -7.081100   -1.474800    0.117500
C     -7.642500   -0.336800   -0.435100
N     -6.933500    0.764400   -0.756600
C     -5.598800    0.721300   -0.514300
