18

C      3.611500   -1.399800    0.423600
C      2.472200   -2.083700    0.849900
C      1.192700   -1.533800    0.679900
C      1.063300   -0.272000    0.063800
C      2.228200    0.376300   -0.335800
C      3.512000   -0.144100   -0.181200
O      1.939800    1.583400   -0.889000
C      0.588800    1.727400   -0.851700
C     -0.100000    2.847800   -1.316200
C     -1.491500    2.828500   -1.198800
C     -2.148400    1.727800   -0.647200
C     -1.426000    0.608900   -0.192800
C     -2.113100   -0.534200    0.344200
C     -2.303700   -1.831500   -0.171100
N     -3.014800   -2.600400    0.658200
O     -3.313900   -1.788200    1.742900
C     -2.776800   -0.557000    1.545200
C     -0.015400    0.605400   -0.287100
