18

C      3.746700   -0.207900    0.770400
C      2.846000   -1.214600    1.117100
C      1.476800   -1.086900    0.836900
C      1.005800    0.074600    0.190000
C      1.943100    1.054500   -0.124800
C      3.308900    0.958200    0.138700
O      1.343300    2.119500   -0.714000
C      0.015300    1.843100   -0.782100
C     -0.936900    2.718400   -1.304800
C     -2.263400    2.291600   -1.290400
C     -2.599100    1.036000   -0.785300
C     -1.615300    0.158400   -0.276700
C     -1.999800   -1.153800    0.205800
N     -1.316800   -2.303800   -0.123200
C     -2.038600   -3.231000    0.452400
O     -3.121900   -2.754300    1.111500
N     -3.107000   -1.371100    0.938200
C     -0.263000    0.579400   -0.258700
