26

C     -3.808700   -3.526500   -0.936000
C     -2.418700   -3.559400   -1.004900
C     -1.671200   -2.422300   -0.679600
C     -2.300800   -1.229800   -0.281900
C     -3.703800   -1.221000   -0.214500
C     -4.452200   -2.357000   -0.539500
O     -4.431000   -0.118700    0.172300
C     -3.736000    1.021700    0.503800
C     -4.516600    2.116700    0.888300
C     -3.907800    3.319700    1.236100
C     -2.520500    3.427100    1.196900
C     -1.740700    2.331100    0.812200
C     -2.334500    1.105700    0.462000
N     -1.575200   -0.042100    0.061200
C     -0.150000   -0.003900    0.005800
C      0.506400    0.250000   -1.204000
C      1.903300    0.287400   -1.256500
C      2.677800    0.071800   -0.104100
C      4.147900    0.111100   -0.161300
C      4.823100    1.209200   -0.707200
C      6.209200    1.201200   -0.737800
N      6.964700    0.186400   -0.270800
C      6.302900   -0.866300    0.251300
C      4.921000   -0.948300    0.328400
C      2.007600   -0.182500    1.104400
C      0.610900   -0.219800    1.160600
