52

C     11.407500   -3.678400   -0.549600
C     10.018300   -3.723700   -0.627400
C      9.265300   -2.559300   -0.441300
C      9.888500   -1.327400   -0.175500
C     11.290700   -1.306000   -0.097500
C     12.044700   -2.469200   -0.283600
O     12.011700   -0.163400    0.163800
C     11.310700    1.004900    0.357500
C     12.085000    2.139400    0.621200
C     11.469600    3.371100    0.828400
C     10.082100    3.467200    0.770200
C      9.308600    2.331700    0.505800
C      9.909400    1.078000    0.296300
N      9.157000   -0.110600    0.021600
C      7.734100   -0.081300   -0.066400
C      6.947800   -0.224400    1.080700
C      5.552400   -0.197300    0.987000
C      4.903600   -0.028200   -0.250100
C      3.424300   -0.010700   -0.279300
N      2.672000   -0.089800    0.803000
C      1.330300   -0.053100    0.473700
C      0.255900   -0.113100    1.370300
C     -1.056600   -0.065600    0.900700
S     -2.536800   -0.118700    1.766400
C     -3.424600    0.002300    0.293300
C     -4.903800    0.023700    0.263600
C     -5.707400   -0.131900    1.405900
C     -7.104700   -0.102200    1.314700
C     -7.734100    0.082600    0.078500
N     -9.157100    0.112900   -0.011100
C     -9.891300    1.320700    0.227700
C     -9.271200    2.542400    0.543500
C    -10.026800    3.698200    0.768400
C    -11.415300    3.655000    0.679600
C    -12.049400    2.456200    0.363700
C    -11.292900    1.301400    0.138900
O    -12.010900    0.169500   -0.172600
C    -11.307500   -0.989800   -0.406500
C    -12.078800   -2.113700   -0.719600
C    -11.461000   -3.336800   -0.966900
C    -10.074000   -3.435200   -0.899400
C     -9.303600   -2.310200   -0.586300
C     -9.906600   -1.064800   -0.336700
C     -6.946600    0.236500   -1.066600
C     -5.551400    0.206400   -0.972300
N     -2.672200    0.080100   -0.788900
C     -1.330600    0.041600   -0.459400
C     -0.256300    0.101100   -1.356100
C      1.056100    0.053900   -0.886400
S      2.536100    0.108300   -1.752300
C      5.706200    0.116800   -1.394200
C      7.103600    0.090100   -1.304000
