18

C     -4.391900   -0.857100    0.271600
C     -3.706800   -1.873300   -0.397400
C     -2.327800   -1.777600   -0.591900
C     -1.637500   -0.663700   -0.118700
C     -2.319900    0.341600    0.576300
C     -3.698200    0.252300    0.757900
O     -1.698000    1.448200    1.097800
C     -0.278000    1.259400    1.164500
C      0.237800    0.692900   -0.150700
C      1.741300    0.564800   -0.140400
N      2.477500    0.419100    0.932400
N      3.752400    0.310900    0.480200
C      4.957500    0.148000    1.083500
N      5.901600    0.116900    0.156500
N      5.291500    0.261400   -1.090300
C      4.017600    0.369300   -0.844000
S      2.573700    0.579100   -1.726700
O     -0.288300   -0.623000   -0.365300
