22

C      6.143600    0.642400    0.006700
C      5.785600   -0.560600   -0.582400
C      4.438500   -0.921200   -0.682700
C      3.418000   -0.067700   -0.186200
C      3.808900    1.136100    0.401100
C      5.165500    1.504800    0.504900
S      2.455400    2.039500    0.942800
C      1.332600    0.856400    0.412300
C     -0.072800    0.915400    0.529500
C     -0.866500   -0.137100    0.043000
C     -2.334700   -0.088300    0.160100
C     -2.949300    0.117300    1.412100
C     -4.342300    0.169700    1.569500
C     -5.098400    0.005700    0.411200
N     -6.441100   -0.006800    0.159000
N     -6.705800   -0.203300   -1.142900
N     -5.542200   -0.322300   -1.771100
C     -4.542800   -0.199200   -0.842800
C     -3.148400   -0.247900   -0.980300
C     -0.230200   -1.228300   -0.553000
C      1.164900   -1.284500   -0.667400
C      1.975400   -0.229100   -0.179700
