26

C     -6.083500    1.494900    0.441100
C     -5.764600    1.195000   -0.874500
C     -4.516400    0.649000   -1.188800
C     -3.557800    0.392900   -0.172900
C     -3.907400    0.704800    1.141400
C     -5.164300    1.255400    1.464000
S     -2.639200    0.332800    2.234100
C     -1.608300   -0.244400    0.991200
C     -0.301200   -0.750400    1.148700
C      0.421400   -1.175100    0.022600
C      1.777600   -1.705600    0.171100
C      1.954400   -3.090700    0.365400
C      3.217400   -3.639200    0.510600
C      4.340400   -2.820400    0.466100
C      4.177700   -1.432700    0.272700
S      5.452900   -0.283900    0.193200
C      4.381000    1.004400   -0.038100
N      4.860600    2.259600   -0.176400
C      3.914600    3.199100   -0.353000
C      2.556200    2.960200   -0.399200
C      2.107000    1.649600   -0.253400
C      3.048200    0.607700   -0.062000
C      2.916600   -0.837200    0.121600
C     -0.179700   -1.105800   -1.234700
C     -1.478200   -0.605400   -1.384600
C     -2.218300   -0.159800   -0.259800
