26

C      6.741800   -1.389100   -0.366900
C      6.178600   -1.645900    0.873800
C      4.866200   -1.248500    1.146400
C      4.090100   -0.578400    0.163900
C      4.684100   -0.333500   -1.074700
C      6.006700   -0.732200   -1.355100
S      3.611200    0.481200   -2.135900
C      2.346400    0.524400   -0.978500
C      1.062600    1.083300   -1.154100
C      0.129100    1.033900   -0.107300
C     -1.205900    1.598600   -0.279000
C     -1.453900    2.964000   -0.420900
N     -2.673000    3.532000   -0.577500
C     -3.765800    2.732100   -0.603900
C     -3.637700    1.342800   -0.478000
C     -2.359900    0.803000   -0.319900
N     -2.509400   -0.564400   -0.240700
C     -3.833400   -0.920300   -0.321900
C     -4.438800   -2.174300   -0.280300
C     -5.820300   -2.161000   -0.396800
N     -6.574700   -1.049800   -0.542500
C     -5.961000    0.158900   -0.582400
C     -4.567800    0.255400   -0.471700
C      0.499900    0.433900    1.097300
C      1.775700   -0.116600    1.268300
C      2.727800   -0.079900    0.218400
