25

C     -6.980800   -0.705800    0.731600
C     -6.775800    0.447600   -0.010000
C     -5.477900    0.855200   -0.332500
C     -4.352100    0.100400    0.091000
C     -4.589800   -1.055400    0.835800
C     -5.896200   -1.471100    1.163700
S     -3.125700   -1.840400    1.261700
C     -2.155600   -0.668200    0.470500
C     -0.746600   -0.652200    0.391000
C     -0.081700    0.379700   -0.296200
C      1.397400    0.349600   -0.349800
N      2.127900   -0.594900    0.213300
C      3.474900   -0.367900    0.003100
C      4.529700   -1.168600    0.459000
C      5.850500   -0.822500    0.174600
S      7.314800   -1.617800    0.607000
C      8.202600   -0.401700   -0.208000
N      7.501100    0.551500   -0.778100
C      6.152500    0.321100   -0.565700
C      5.095800    1.120200   -1.020500
C      3.775700    0.772500   -0.735000
S      2.314000    1.561900   -1.163900
C     -0.856700    1.378400   -0.891500
C     -2.257400    1.360000   -0.811000
C     -2.933800    0.324200   -0.120800
