33

Si    -3.074400    2.507600   -2.955000
C     -4.171500    1.696100   -1.680100
C     -3.466000    0.913300   -0.834200
C     -4.066300   -0.022600    0.149100
C     -5.456500    0.040600    0.456800
C     -6.105400   -0.851800    1.319700
C     -5.296400   -1.851300    1.895100
N     -5.742000   -2.795100    2.738300
S     -4.427900   -3.713900    3.147400
N     -3.247100   -2.956200    2.279300
C     -3.810000   -1.936000    1.603800
C     -3.180100   -0.995600    0.718500
C     -1.715700   -0.968300    0.467800
N     -0.991800   -1.958300    1.034800
C      0.351400   -1.906100    0.976000
C      1.079400   -0.855800    0.443200
C      2.498300   -0.898700    0.529600
C      3.362600    0.132800    0.110700
C      4.821500    0.037900    0.211000
C      5.515200   -1.085500   -0.261800
C      6.901700   -1.166100   -0.138200
C      7.568900   -0.115400    0.465100
N      6.951400    0.984200    0.939800
C      5.603000    1.036400    0.796700
C      2.696000    1.287100   -0.379400
N      3.289500    2.421800   -0.790800
S      2.093700    3.486200   -1.186200
N      0.763600    2.559400   -0.888500
C      1.177500    1.342000   -0.492400
C      0.333600    0.209600   -0.139500
C     -1.095900    0.078700   -0.246900
C     -2.002500    0.917600   -1.071700
C     -1.651300    1.582100   -2.193200
