30

C     -5.908200    1.754300   -1.702700
C     -4.553700    1.754700   -2.004200
C     -3.690100    0.888500   -1.329300
C     -4.152600    0.000000   -0.327300
C     -3.306700   -0.894600    0.395200
C     -3.880700   -1.779300    1.329500
C     -5.247800   -1.773600    1.583800
C     -6.071100   -0.882200    0.904100
C     -5.544800    0.001100   -0.049600
C     -6.399900    0.880600   -0.734800
C     -1.844600   -0.926800    0.226500
C     -1.037500    0.147000    0.602400
C      0.350800    0.062300    0.439300
C      1.192200    1.129900    0.800600
C      2.573400    0.983300    0.611100
N      3.600900    1.870900    0.880500
C      4.823900    1.331000    0.543400
C      6.125200    1.855900    0.637500
C      7.216000    1.075000    0.213900
C      6.934200   -0.216200   -0.291000
N      7.842900   -1.103700   -0.741400
S      6.987800   -2.463800   -1.221000
N      5.417900   -1.985100   -0.876800
C      5.591300   -0.765500   -0.391200
C      4.521300    0.074700    0.054700
C      3.140000   -0.178800    0.079900
C      2.288800   -1.242800   -0.277200
C      0.897300   -1.117600   -0.095200
C      0.008900   -2.140500   -0.427200
N     -1.334300   -2.075500   -0.274300
