31

C      6.826200   -1.474800    1.688200
C      5.474600   -1.775400    1.784200
C      4.534900   -0.970000    1.136500
C      4.917900    0.159000    0.373400
C      3.990800    1.011600   -0.295400
C      4.474600    2.110300   -1.033200
C      5.837000    2.379400   -1.114600
C      6.743600    1.554300   -0.456800
C      6.304500    0.448700    0.285900
C      7.237600   -0.370900    0.943300
C      2.537300    0.798400   -0.234600
C      1.702900    1.648500    0.481200
C      0.329600    1.396700    0.491000
C     -0.210600    0.304000   -0.204200
C      0.715400   -0.475200   -0.896900
N      2.057000   -0.259000   -0.927200
C     -1.653200    0.046700   -0.201000
N     -2.494000    1.115400    0.013100
C     -3.857500    0.972000    0.033800
C     -4.607100   -0.197700   -0.136100
C     -6.067300   -0.246000   -0.104900
C     -6.773100   -1.177800    0.667400
C     -8.167400   -1.175600    0.680500
C     -8.829900   -0.230500   -0.081600
N     -8.199800    0.690000   -0.838800
C     -6.845300    0.655600   -0.835400
C     -3.785100   -1.336900   -0.345300
N     -4.208500   -2.599800   -0.540500
S     -2.866500   -3.547200   -0.725900
N     -1.672600   -2.413800   -0.571300
C     -2.271700   -1.224200   -0.378400
