23

C     -4.674500    1.453900   -1.770700
C     -3.334100    1.708800   -2.026400
C     -2.347500    0.961600   -1.379000
C     -2.673600   -0.063000   -0.458200
C     -1.699500   -0.849900    0.222700
C     -2.119800   -1.844400    1.125300
C     -3.471400   -2.072800    1.360500
C     -4.427400   -1.309300    0.697200
C     -4.048400   -0.307600   -0.208400
C     -5.028500    0.453000   -0.867600
C     -0.256400   -0.664000    0.018100
C      0.413900   -1.306600   -1.026000
N      1.733800   -1.210600   -1.311800
C      2.436500   -0.403500   -0.477600
C      1.853100    0.274000    0.589200
C      0.489900    0.161200    0.867800
N      2.851600    0.987500    1.206900
C      4.056100    0.788500    0.570300
C      5.323500    1.300300    0.840800
C      6.322200    0.876700   -0.024400
N      6.142100    0.034800   -1.066000
C      4.897300   -0.450500   -1.309100
C      3.821500   -0.084100   -0.494200
