32

C      6.382500    0.145400   -2.331700
C      5.032200    0.366900   -2.564700
C      4.106400    0.167700   -1.538000
C      4.504700   -0.260400   -0.248700
C      3.594400   -0.477100    0.826900
C      4.086600   -0.894000    2.077600
C      5.447000   -1.102300    2.278700
C      6.340100   -0.896400    1.231600
C      5.889200   -0.478100   -0.028700
C      6.807400   -0.273600   -1.072100
C      2.148000   -0.283600    0.682000
C      1.323000   -1.263400    0.165400
N     -0.019700   -1.131600    0.011500
C     -0.662100    0.007500    0.369100
C      0.128300    1.040100    0.904500
C     -0.491700    2.206300    1.275700
N     -1.806300    2.405400    1.153200
C     -2.602500    1.441100    0.644400
C     -3.964000    1.740200    0.554700
N     -4.396300    2.959900    0.977100
C     -5.696600    3.291400    0.909700
C     -6.653700    2.444100    0.422800
C     -6.233600    1.194500   -0.013400
C     -4.869700    0.793400    0.035800
C     -4.401600   -0.482100   -0.403500
C     -5.286600   -1.464600   -0.933700
C     -4.861700   -2.715400   -1.369700
C     -3.525700   -3.027400   -1.288900
C     -2.634200   -2.084900   -0.773700
C     -3.016700   -0.790700   -0.313800
C     -2.085600    0.191000    0.223200
C      1.519100    0.895300    1.060400
