29

C     -4.495600    1.169100    2.040400
C     -3.420700    1.993800    2.753900
C     -2.222600    1.877200    2.138300
C     -2.349000    1.014000    1.016900
C     -3.693500    0.581100    0.927200
C     -3.937100   -0.250800   -0.139500
S     -2.457300   -0.470900   -1.016300
C     -1.513500    0.536500    0.043900
C     -0.131100    0.720500   -0.182200
Si     1.182700    0.349600    1.118400
C      2.466200    0.878200   -0.171800
C      1.876000    1.244700   -1.327600
C      0.422300    1.150700   -1.334600
C      3.897900    0.876600    0.122800
C      4.445300    2.054900    0.655400
C      5.799600    2.130900    0.962600
C      6.624200    1.032300    0.734500
C      6.111200   -0.154500    0.189300
C      6.960800   -1.249500   -0.041700
C      6.472900   -2.435100   -0.589100
C      5.127700   -2.541100   -0.915700
C      4.270000   -1.462000   -0.691400
C      4.733000   -0.247000   -0.131800
C     -5.198500   -0.890300   -0.550000
C     -5.334900   -1.707400   -1.670500
C     -6.582300   -2.259400   -1.960600
C     -7.659800   -1.984800   -1.130100
C     -7.444700   -1.165000   -0.037700
N     -6.248500   -0.616500    0.267900
