24

C      3.551900   -0.995000   -1.895600
C      2.284100   -1.352100   -2.666900
C      1.176800   -0.988000   -1.984300
C      1.551000   -0.382300   -0.753100
C      2.969600   -0.370800   -0.668700
C      3.434900    0.197700    0.491700
S      2.083500    0.704400    1.449700
C      0.880000    0.163400    0.312400
C     -0.524300    0.307900    0.541600
C     -1.671700   -0.114900   -0.355800
C     -2.897000    0.300200    0.423400
C     -2.495800    0.865200    1.574100
C     -1.056000    0.869300    1.644400
C     -4.268100    0.089600   -0.058100
C     -5.389700    0.483600    0.680600
C     -6.676400    0.264900    0.186300
C     -6.813000   -0.347900   -1.045700
N     -5.768300   -0.746500   -1.797200
C     -4.531500   -0.518700   -1.286800
C      4.786100    0.403300    0.962500
N      5.056200    0.975600    2.121000
C      6.419900    1.044900    2.319200
C      7.192100    0.523100    1.307200
S      6.179200   -0.075000    0.064600
