32

Si    -1.930000   -4.387100   -0.302800
C     -3.404500   -3.302700   -0.010200
C     -3.070400   -1.994700    0.055000
C     -4.047900   -0.897800    0.220400
C     -5.392300   -1.151200    0.562800
C     -6.283500   -0.110300    0.804700
C     -5.832100    1.196300    0.742500
C     -4.500400    1.457500    0.405900
C     -3.585200    0.433200    0.080900
C     -2.163400    0.704800   -0.264100
C     -1.634700    1.953700   -0.669800
C     -2.279300    3.080800   -1.123300
O     -1.380000    4.071400   -1.403700
C     -0.134500    3.568500   -1.168300
C     -0.242300    2.266900   -0.758400
C      0.776200    1.384100   -0.458600
C      2.207200    1.656600   -0.427800
C      2.956300    0.592100   -0.064000
Si     1.872400   -0.912500    0.256500
C      0.290000    0.069100   -0.166900
C     -1.113300   -0.300700   -0.157400
C     -1.618100   -1.712100   -0.105900
C     -0.902000   -2.830200   -0.358300
C      4.414500    0.622400    0.045600
N      5.044600    1.810100   -0.263500
C      6.403500    1.955800   -0.195800
C      7.332000    0.993700    0.173600
C      6.750800   -0.243300    0.502600
N      7.433800   -1.331900    0.891000
S      6.313000   -2.520800    1.163200
N      4.914000   -1.712800    0.799300
C      5.254300   -0.459000    0.444700
