30

C     -1.961900   -1.675200    2.356200
C     -3.421200   -1.865300    2.768800
C     -4.261500   -1.270300    1.892300
C     -3.510700   -0.651500    0.856800
C     -2.132100   -0.873400    1.110000
C     -1.318200   -0.282600    0.180500
S     -2.273200    0.537700   -0.999000
C     -3.781200    0.089200   -0.261800
C     -5.040200    0.491400   -0.826500
C     -6.315900   -0.006700   -0.632900
C     -7.210800    0.750700   -1.429600
C     -6.464100    1.693100   -2.096500
N     -5.155000    1.525300   -1.730200
C      0.112100   -0.303100    0.118900
S      1.059700    1.139000    0.135300
C      2.546700    0.282300    0.066600
C      3.821600    0.956400    0.048300
C      4.395200    1.582200    1.180900
C      5.664200    2.246100    1.166000
C      6.484900    2.354100    0.022100
C      5.911200    1.741000   -1.092400
C      6.524500    1.724700   -2.320500
S      5.562600    0.905500   -3.485400
C      4.321700    0.575000   -2.340600
C      4.633700    1.067200   -1.093800
C      2.330800   -1.067800    0.045500
S      3.464300   -2.473800   -0.009000
C      2.008500   -3.457400   -0.024200
C      0.792500   -2.766600    0.017800
C      0.964600   -1.357300    0.071500
