28

C      0.695900    1.855100   -0.854700
C     -0.585800    2.623300   -1.193300
C     -1.678700    1.837400   -1.062700
C     -1.277000    0.540800   -0.648200
C      0.130700    0.517700   -0.515000
C      0.609800   -0.701600   -0.113300
S     -0.706500   -1.803400    0.094400
C     -1.912900   -0.636600   -0.364900
C     -3.302200   -0.970900   -0.372100
C     -3.744300   -1.812900   -1.338900
C     -5.145000   -2.210000   -1.473800
C     -6.101400   -1.751400   -0.645900
C     -5.724600   -0.841000    0.415200
C     -6.570500   -0.309300    1.316800
Si    -5.649700    0.798700    2.512000
C     -4.071400    0.399300    1.594600
C     -4.303900   -0.439900    0.564000
C      1.980300   -1.064700    0.118200
C      2.525800   -2.269100    0.531400
C      3.930500   -2.096900    0.604100
C      4.186900   -0.794300    0.232300
O      3.008400   -0.171500   -0.060800
C      5.392900    0.012400    0.095300
C      5.353000    1.348000   -0.320200
C      6.532000    2.083500   -0.438100
C      7.729200    1.458900   -0.134900
N      7.819600    0.175300    0.269300
C      6.653700   -0.511900    0.373400
