33

Si    -2.788400    3.650100    1.811900
C     -4.066300    2.382300    1.344400
C     -3.509300    1.289100    0.777500
C     -4.271600    0.130000    0.270300
C     -5.675300    0.161700    0.146900
C     -6.367300   -0.877900   -0.467800
C     -5.660200   -1.941000   -1.003100
C     -4.268400   -1.982300   -0.879700
C     -3.540800   -0.993200   -0.183000
C     -2.060000   -1.043000   -0.035400
C     -1.257900   -2.203700   -0.098800
C     -1.719900   -3.496300    0.032600
S     -0.475600   -4.664400   -0.124200
C      0.722300   -3.449800   -0.262000
C      0.182900   -2.184300   -0.184800
C      0.960600   -0.998300   -0.194100
C      2.372200   -0.941300   -0.351200
C      3.057400    0.273500   -0.314900
C      2.244800    1.378200   -0.124700
N      0.891600    1.348200    0.035500
C      0.201500    0.186100    0.012300
C     -1.246700    0.139700    0.173200
C     -2.026900    1.333100    0.669400
C     -1.503800    2.472500    1.176300
C      4.510400    0.335700   -0.490000
N      5.126100   -0.721100   -1.132800
C      6.478300   -0.757000   -1.346300
C      7.412600    0.197400   -0.969200
C      6.847400    1.293700   -0.294500
N      7.536400    2.343200    0.180500
S      6.431700    3.348800    0.898900
N      5.030800    2.503600    0.634700
C      5.362200    1.384700   -0.036600
