29

C     -1.212900   -2.360800    1.631300
C     -2.613200   -2.903400    1.935300
C     -3.574100   -2.083600    1.451700
C     -2.965800   -0.972400    0.811500
C     -1.560000   -1.107300    0.902200
C     -0.887200   -0.063800    0.322800
S     -2.015400    1.075500   -0.324000
C     -3.399500    0.156100    0.173000
C     -4.752200    0.624300   -0.131800
C     -5.171100    1.915800    0.218800
C     -6.469200    2.345800   -0.068500
C     -7.362800    1.489100   -0.708100
C     -6.960800    0.202500   -1.060400
C     -5.663100   -0.227700   -0.772500
C      0.535000    0.179300    0.207100
C      1.217400    1.261600    0.808300
C      2.637000    1.470800    0.702200
C      3.535500    0.624600   -0.011800
C      4.972600    0.852300   -0.123600
C      5.491300    2.103300   -0.459900
C      6.872400    2.273200   -0.530100
C      7.703500    1.195200   -0.258900
C      7.115100   -0.012600    0.070800
N      5.780000   -0.205200    0.143900
C      2.831000   -0.437900   -0.599700
C      3.335500   -1.439700   -1.394500
N      2.283900   -2.245200   -1.767500
C      1.106500   -1.767000   -1.236700
C      1.414700   -0.648700   -0.498300
