30

C      1.228800    3.010900   -0.165700
C      2.617500    3.643000   -0.041000
C      3.578900    2.699800    0.075600
C      2.981500    1.412600    0.041300
C      1.580300    1.560600   -0.107700
C      0.921800    0.359200   -0.182100
S      2.062100   -0.935800   -0.038100
C      3.426200    0.121800    0.099100
C      4.771300   -0.420900    0.272200
C      5.607000    0.039300    1.294300
C      6.890100   -0.486700    1.435900
C      7.303400   -1.461500    0.543400
N      6.533400   -1.932600   -0.459600
C      5.289500   -1.402700   -0.570100
C     -0.485000    0.112500   -0.332900
S     -1.660800    0.982100    0.584500
C     -2.991000    0.141900   -0.111200
C     -4.345800    0.395300    0.254800
S     -5.109600    1.948000    0.098500
C     -6.632100    1.386900    0.724200
C     -6.490400    0.080400    1.024500
C     -7.217900   -1.013700    1.551400
C     -6.342300   -2.120400    1.570500
N     -5.081100   -1.787800    1.079200
C     -5.251200   -0.466300    0.772600
C     -2.550200   -0.765700   -1.036800
S     -3.436100   -1.914700   -2.121100
C     -1.844300   -2.368300   -2.700500
C     -0.760300   -1.702200   -2.119900
C     -1.154900   -0.758500   -1.131000
