28

C     -4.040800   -2.064000    0.326800
C     -2.873000   -3.042500    0.423400
C     -1.688900   -2.403700    0.297100
C     -1.912900   -1.011400    0.112900
C     -3.313100   -0.776900    0.126200
C     -3.630000    0.544600   -0.045200
S     -2.178300    1.462200   -0.218600
C     -1.120100    0.096100   -0.065100
C      0.340900    0.205700   -0.127600
N      1.043200   -0.961400    0.009800
C      2.415600   -0.984600   -0.031500
C      3.318700    0.077800   -0.206600
C      4.777200   -0.119500   -0.226800
C      5.733600    0.881300   -0.394300
C      7.092100    0.555600   -0.393700
C      7.480100   -0.763500   -0.226100
C      6.486900   -1.706800   -0.065200
N      5.166200   -1.414500   -0.062500
C      2.630400    1.313800   -0.354000
N      3.185500    2.527100   -0.538500
S      1.968200    3.634000   -0.651000
N      0.658400    2.654200   -0.473900
C      1.101200    1.393300   -0.315300
C     -4.920400    1.178700   -0.090400
C     -6.182900    0.614600    0.028100
C     -7.132500    1.659900   -0.084700
C     -6.406100    2.808700   -0.266100
O     -5.079900    2.533000   -0.271400
