26

C     -4.094100   -1.699900    0.528700
C     -3.087500   -2.755400    0.992100
C     -1.817600   -2.301700    0.891300
C     -1.826800   -0.975300    0.382800
C     -3.170900   -0.591100    0.151100
C     -3.289000    0.675600   -0.357700
S     -1.719100    1.370800   -0.545200
C     -0.892600   -0.029600    0.060600
C      0.534500   -0.075500    0.166700
S      1.632200    0.525400   -1.029800
C      3.075900    0.065500   -0.138400
C      4.367800    0.304300   -0.661400
Si     5.770100   -0.952600   -0.584500
C      6.841900    0.306100   -1.481700
C      6.151700    1.431200   -1.742700
C      4.768300    1.430900   -1.287000
C      2.637800   -0.507200    1.012600
C      3.146400   -1.073000    2.198100
C      2.019700   -1.433200    2.945500
O      0.818200   -1.140100    2.332800
C      1.273500   -0.582200    1.174100
C     -4.500200    1.367000   -0.703600
C     -4.683400    2.642200   -1.219000
C     -6.076000    2.841500   -1.381200
C     -6.673600    1.681600   -0.958200
O     -5.739200    0.789100   -0.549400
