29

Si    -3.932200    3.968400   -0.607600
C     -4.778300    2.357700   -0.207400
C     -3.892100    1.355500   -0.014600
C     -4.239900   -0.044200    0.319500
C     -5.581900   -0.450300    0.464400
C     -5.907800   -1.766500    0.778700
C     -4.896500   -2.696000    0.952600
C     -3.560000   -2.309100    0.812100
C     -3.186300   -0.983100    0.493800
C     -1.745400   -0.571500    0.343000
C     -0.685000   -1.486500    0.513200
C      0.675700   -1.107000    0.370900
C      1.824900   -1.940900    0.518500
C      1.774900   -3.281600    0.826300
S      3.341200   -3.980900    0.905900
C      4.102100   -2.490800    0.526500
C      3.187500   -1.476200    0.357400
C      3.520400   -0.152400    0.036000
C      2.380600    0.671900   -0.113800
C      1.020200    0.232500    0.044500
C     -0.034400    1.138000   -0.120700
C     -1.392100    0.766100    0.020600
C     -2.478100    1.759000   -0.163200
C     -2.306400    3.065000   -0.467100
C      4.876800    0.332100   -0.127700
C      5.946000    0.347700    0.750900
C      7.047300    0.944100    0.091100
C      6.628300    1.283800   -1.174100
N      5.314000    0.916200   -1.295700
