31

C      3.032200    2.827300    0.502100
C      1.762800    3.665000    0.307900
C      0.669000    2.879100    0.184100
C      1.058700    1.516700    0.271100
C      2.460800    1.449600    0.462000
C      2.927300    0.160500    0.533200
S      1.606200   -0.950100    0.373300
C      0.433700    0.305600    0.183600
C     -0.953500    0.017400   -0.036200
S     -2.131600    0.415000    1.153200
C     -3.432600   -0.169700    0.190600
C     -4.798200   -0.064900    0.683000
C     -5.733900    0.752400    0.050700
C     -7.030800    0.787300    0.555100
C     -7.356000   -0.008100    1.653500
C     -6.360600   -0.796100    2.217600
N     -5.086600   -0.833200    1.766600
C     -2.976200   -0.666300   -1.010000
N     -3.793800   -1.192000   -1.973100
C     -3.075500   -1.612500   -3.048700
C     -1.687400   -1.503800   -3.180000
N     -0.851800   -0.966800   -2.250100
C     -1.540200   -0.562400   -1.141800
C      4.273000   -0.282700    0.741300
S      5.237600    0.279700    2.059700
C      6.603500   -0.659600    1.596900
C      6.272100   -1.351700    0.484200
C      6.988700   -2.255900   -0.333400
C      6.221100   -2.723600   -1.407800
S      4.585500   -2.091200   -1.532800
C      4.986000   -1.168100   -0.027400
