30

C     -4.334800    1.605000   -0.518900
C     -3.374600    2.798500   -0.537700
C     -2.092000    2.402300   -0.374300
C     -2.049300    0.990200   -0.232100
C     -3.368600    0.484700   -0.321500
C     -3.438500   -0.882900   -0.215500
S     -1.839500   -1.514900   -0.004400
C     -1.083800    0.040800   -0.053800
C      0.331000    0.207000    0.102200
S      1.498800   -0.734600   -0.787500
C      2.861600    0.045900   -0.062600
C      4.242500   -0.244600   -0.377300
C      5.212800    0.737800   -0.616500
N      6.540400    0.556500   -0.925600
C      7.065600   -0.698600   -1.020100
C      6.212700   -1.795400   -0.787500
N      6.555900   -3.093100   -0.828200
S      5.183100   -3.951000   -0.465700
N      4.098900   -2.718700   -0.242100
C      4.757800   -1.563800   -0.453200
C      2.391700    0.982100    0.785900
O      3.125500    1.835100    1.554900
C      2.104400    2.506300    2.201200
C      0.820000    2.084900    1.836300
C      1.023500    1.070300    0.882200
C     -4.632100   -1.693100   -0.268900
N     -5.824800   -1.145600   -0.420200
C     -6.798700   -2.123900   -0.441800
C     -6.345100   -3.416100   -0.305900
S     -4.641100   -3.412300   -0.145300
