31

C     -3.783100    2.279500   -0.283500
C     -2.589200    3.222300   -0.456800
C     -1.417200    2.562600   -0.316200
C     -1.677700    1.192700   -0.050200
C     -3.079000    0.989600   -0.026800
C     -3.426400   -0.318200    0.200000
S     -1.994200   -1.274700    0.392900
C     -0.930800    0.069900    0.164500
C      0.490100   -0.077500    0.216900
S      1.375600   -1.078900   -0.866700
C      2.902100   -0.678900   -0.164200
C      4.142500   -1.216600   -0.656300
S      4.344300   -2.915500   -0.902300
C      5.964000   -2.741800   -1.433900
C      6.351000   -1.427700   -1.426300
N      7.593900   -1.023300   -1.808900
C      7.709900    0.329400   -1.714400
C      6.700100    1.196200   -1.280600
N      5.453800    0.815400   -0.888000
C      5.303600   -0.540500   -0.974700
C      2.666600    0.189700    0.852300
C      3.496600    0.849000    1.799800
C      2.774700    1.650900    2.689400
S      1.033100    1.677900    2.474100
C      1.336300    0.541400    1.097100
C     -4.750800   -0.931700    0.307800
C     -5.712500   -0.380200    1.166200
C     -6.985400   -0.947100    1.268600
C     -7.311600   -2.069800    0.510800
C     -6.366800   -2.626500   -0.348700
C     -5.093500   -2.060200   -0.450500
