32

C     -1.915400    3.499200   -0.139400
C     -0.463200    3.881200    0.154700
C      0.337000    2.791700    0.178300
C     -0.438400    1.629200   -0.077400
C     -1.789300    2.017700   -0.266000
C     -2.626400    0.953800   -0.485100
S     -1.710000   -0.512300   -0.487400
C     -0.207400    0.283700   -0.158700
C      1.018300   -0.443200   -0.036200
S      2.509500    0.028200   -0.780600
C      3.398900   -1.337300   -0.161000
C      4.787000   -1.548600   -0.455500
S      5.404600   -3.121300   -0.831400
C      7.012800   -2.555900   -1.062000
C      7.076800   -1.209700   -0.849700
S      8.473200   -0.075100   -0.930500
C      7.303400    1.154100   -0.476900
C      5.986400    0.718000   -0.290400
C      5.829200   -0.678900   -0.516400
C      2.530900   -2.077200    0.570700
C      2.487800   -3.246500    1.354200
C      1.167700   -3.333300    1.810000
O      0.353100   -2.302800    1.383700
C      1.245800   -1.590000    0.638100
C     -4.047200    0.959400   -0.701300
S     -4.777400    2.050400   -1.834800
C     -6.372600    1.469600   -1.524400
C     -6.348900    0.479300   -0.581300
C     -7.417300   -0.276700   -0.003600
C     -7.035800   -1.178600    0.926500
Si    -5.133500   -1.158500    1.176200
C     -5.029200    0.199500   -0.131000
