33

C     -3.100500   -2.208300    1.670200
C     -1.806200   -2.837400    2.193400
C     -0.716700   -2.222800    1.677700
C     -1.130900   -1.184100    0.801700
C     -2.546700   -1.147900    0.780400
C     -3.037600   -0.153300   -0.022600
S     -1.736800    0.715300   -0.754500
C     -0.518600   -0.240500    0.024000
C      0.879900   -0.020100   -0.197500
S      1.618200    1.554200   -0.097400
C      3.212200    0.966600   -0.450000
C      4.384400    1.783200   -0.522700
S      4.380600    3.331000   -1.299100
C      6.047900    3.616600   -0.983700
C      6.587600    2.566500   -0.300100
S      8.260400    2.298100    0.311900
C      7.629100    0.776100    0.920800
C      6.276000    0.521600    0.669300
C      5.643700    1.566700   -0.061400
C      3.119800   -0.367900   -0.632500
O      4.125700   -1.232600   -0.950900
C      3.412400   -2.413900   -1.020600
C      2.045400   -2.274500   -0.755900
C      1.860700   -0.904000   -0.495800
C     -4.409300    0.205500   -0.323200
C     -5.202300   -0.528100   -1.230900
C     -6.545200   -0.195000   -1.524500
C     -7.210900    0.894600   -0.934900
C     -6.464900    1.663200   -0.007300
N     -6.918700    2.733600    0.663100
S     -5.661700    3.259900    1.611700
N     -4.492500    2.148800    1.227400
C     -5.028800    1.316700    0.315800
