30

Si     3.724900   -3.298100    1.908100
C      4.682200   -1.819400    1.310500
C      3.887000   -0.917600    0.694900
C      4.379400    0.270200   -0.036300
C      5.727700    0.671900   -0.006600
C      6.168700    1.763700   -0.753900
C      5.269700    2.468700   -1.541300
C      3.927100    2.088200   -1.569800
C      3.447500    0.992300   -0.818900
C      1.997600    0.645200   -0.811600
N      1.219600    1.436600   -1.598600
C     -0.114300    1.266000   -1.548700
C     -0.758300    0.376900   -0.701000
C     -2.160900    0.314400   -0.659400
C     -2.778600   -0.534400    0.245300
N     -2.062300   -1.290700    1.102400
C     -0.707700   -1.214800    1.033400
C      0.034700   -0.438200    0.127600
C      1.460700   -0.372000    0.009200
C      2.444300   -1.272900    0.674100
C      2.198300   -2.504700    1.173200
C     -4.238600   -0.653400    0.353300
S     -4.940300   -2.153700    0.869900
C     -6.542200   -1.564200    0.748900
C     -6.560700   -0.263000    0.324600
N     -7.716000    0.436500    0.149000
C     -7.453600    1.703700   -0.268900
C     -6.175900    2.226700   -0.497000
N     -5.007300    1.546300   -0.336200
C     -5.236200    0.267000    0.090500
