20

C     -2.674800   -2.289700   -0.178900
C     -4.051200   -1.643700   -0.180000
C     -4.009100   -0.302900   -0.099100
C     -2.614600    0.041700   -0.038600
C     -1.775600   -1.083300   -0.081300
C     -0.368000   -1.070100   -0.040100
N      0.224000   -2.266500   -0.094300
C      1.571900   -2.321300   -0.058800
C      2.421500   -1.225700    0.030700
C      3.816900   -1.411000    0.059700
C      4.677500   -0.323300    0.149100
C      4.147800    0.955200    0.209900
C      2.760100    1.141000    0.181100
C      1.845800    0.061300    0.090700
C      0.396000    0.157700    0.054800
C     -0.490200    1.305200    0.097600
C     -0.200800    2.647900    0.185700
N     -1.392600    3.350900    0.193300
C     -2.456000    2.486200    0.111300
C     -1.925500    1.225500    0.051600
