30

C      6.358600    2.647700    0.509700
C      4.959900    3.039300    0.028800
C      4.179800    1.950100   -0.157700
C      4.917600    0.777900    0.161800
C      6.224600    1.164300    0.552100
C      7.021900    0.095700    0.852500
S      6.149800   -1.379200    0.644900
C      4.689000   -0.572000    0.169300
C      3.494300   -1.305000   -0.134800
C      3.325100   -2.575300   -0.650300
C      1.931800   -2.819400   -0.756400
C      1.267600   -1.700900   -0.292200
N      2.236300   -0.799700    0.087500
C     -0.136100   -1.429500   -0.180000
S     -0.749100    0.069100    0.479300
C     -2.403100   -0.371500    0.260100
C     -3.495500    0.493700    0.619300
C     -3.792800    0.925100    1.935800
C     -4.903900    1.780600    2.272100
C     -5.828900    2.295800    1.332600
C     -5.507500    1.863700    0.053000
C     -6.164400    2.165300   -1.109200
O     -5.531100    1.558200   -2.160100
C     -4.459600    0.869900   -1.657300
C     -4.412900    1.017200   -0.294200
C     -2.445600   -1.611200   -0.271900
N     -3.555000   -2.346700   -0.583400
C     -2.980000   -3.508000   -1.090200
C     -1.570900   -3.443500   -1.062900
C     -1.212600   -2.181500   -0.513600
