30

C     -7.085900    0.977100   -0.955600
C     -5.961000    1.205600   -1.970500
C     -4.758800    0.851300   -1.461500
C     -4.932700    0.379100   -0.134700
C     -6.307200    0.438500    0.195600
C     -6.560500   -0.009400    1.462500
S     -5.092000   -0.503100    2.230600
C     -4.120900   -0.101300    0.853700
C     -2.685600   -0.302300    0.895000
C     -2.077800   -1.576000    0.992900
C     -0.663400   -1.781100    1.009900
C      0.287300   -0.735600    0.918300
C      1.718100   -0.984200    0.926300
N      2.366200   -1.569900    1.910100
C      3.702600   -1.692700    1.577700
C      4.069900   -1.218000    0.330900
S      2.668200   -0.617600   -0.459200
C      5.371200   -1.228300   -0.281100
S      6.504200   -2.500900    0.038200
C      7.705600   -1.845000   -1.001500
C      7.262100   -0.684900   -1.565400
S      8.074300    0.442100   -2.712000
C      6.596100    1.381500   -2.595100
C      5.597200    0.864700   -1.761600
C      5.967200   -0.367100   -1.148600
C     -0.309100    0.538300    0.850100
C      0.378300    1.730900    0.832600
S     -0.679700    3.081100    0.755700
C     -2.074500    2.082400    0.786900
C     -1.747800    0.746100    0.834700
