31

C      7.136000    0.146100   -1.447700
C      6.203100   -0.939900   -1.993300
C      4.936900   -0.769400   -1.548700
C      4.884300    0.375300   -0.711500
C      6.177600    0.942100   -0.629500
C      6.211400    2.052500    0.166800
S      4.640300    2.382800    0.807400
C      3.912400    1.021700    0.002700
C      2.521100    0.742700    0.153400
C      1.696400    1.150500   -0.838600
C      0.252900    0.922800   -0.821000
C     -0.387500    0.290700    0.191200
C     -1.798000    0.102900    0.072300
S     -2.915000    1.451000    0.056600
C     -4.329300    0.449700   -0.076000
C     -5.687100    0.975300   -0.145600
N     -5.838600    2.300900   -0.116800
C     -7.100400    2.711300   -0.183400
N     -8.173100    1.929200   -0.273900
C     -7.894600    0.628700   -0.294700
N     -6.682100    0.083200   -0.234800
C     -3.915600   -0.838500   -0.095100
N     -4.687300   -1.963700   -0.183800
C     -3.722900   -2.966400   -0.155900
C     -2.421900   -2.430400   -0.054600
C     -2.552900   -1.017800   -0.013300
C      0.440200   -0.186900    1.306700
C     -0.006100   -0.829100    2.406600
Si     1.394900   -1.254500    3.562300
C      2.567500   -0.450500    2.357000
C      1.910500    0.038000    1.284500
