32

Si    -3.306600   -1.225600   -3.423100
C     -4.553900   -0.869700   -2.080500
C     -3.948700   -0.532500   -0.921300
C     -4.631100   -0.420100    0.377900
C     -6.021600   -0.388900    0.532100
C     -6.576900   -0.342800    1.806600
C     -5.721700   -0.332300    2.891500
N     -4.376500   -0.351700    2.786300
C     -3.834100   -0.388600    1.535400
C     -2.346400   -0.314600    1.465900
C     -1.577200   -0.372000    2.638900
C     -0.190200   -0.220700    2.618100
C      0.488000    0.113100    1.446700
C      1.905800    0.317500    1.539900
C      2.731000    0.747500    0.482600
C      4.157300    0.925400    0.601300
S      4.878100    2.127200    1.617700
C      6.502300    1.675400    1.181000
C      6.418800    0.647100    0.312400
C      7.231400   -0.228500   -0.448200
C      6.363400   -1.093600   -1.149700
N      5.025600   -0.815500   -0.874300
C      5.144900    0.231000   -0.004300
C      1.992800    1.040200   -0.668900
C      2.538300    1.614600   -1.796100
S      1.341400    1.980400   -2.963900
C      0.087600    1.397500   -1.949800
C      0.562200    0.820800   -0.791900
C     -0.275500    0.249900    0.233800
C     -1.668900   -0.133100    0.229800
C     -2.470600   -0.454300   -0.986800
C     -1.970500   -0.894000   -2.162400
