31

C      8.501100   -0.048500   -0.243000
C      7.728900   -1.036400    0.636300
C      6.392900   -0.868200    0.509000
C      6.135900    0.181400   -0.412100
C      7.372400    0.692700   -0.873800
C      7.215800    1.720000   -1.761600
S      5.538100    2.041600   -2.018500
C      5.025100    0.792900   -0.926000
C      3.600700    0.531400   -0.711800
C      3.099800   -0.771600   -0.826600
C      1.742700   -1.038200   -0.613400
C      0.855600   -0.006900   -0.280900
C      1.355400    1.296200   -0.163800
C      2.713300    1.562000   -0.376500
C     -0.557600   -0.299600   -0.049900
S     -1.790400    0.551000   -0.910500
C     -3.070200   -0.326800   -0.160900
C     -4.448500   -0.096200   -0.424800
C     -4.949300   -0.561000   -1.596200
C     -6.350000   -0.403700   -1.984800
C     -7.246100    0.215800   -1.195200
C     -6.802600    0.746300    0.076800
C     -7.584500    1.391300    0.962300
Si    -6.592500    1.912100    2.461100
C     -5.082300    1.142000    1.673100
C     -5.381300    0.596700    0.475800
C     -2.567900   -1.242800    0.724400
S     -3.373200   -2.447500    1.807500
C     -1.742300   -2.867500    2.307900
C     -0.703700   -2.155600    1.698500
C     -1.172500   -1.200300    0.757700
