23

C     -6.974500    0.502000   -0.350800
C     -6.428600   -0.894100   -0.658300
C     -5.101400   -0.970800   -0.408700
C     -4.635700    0.284500    0.067800
C     -5.730300    1.183900    0.105900
C     -5.372100    2.429900    0.537900
S     -3.684100    2.477900    0.893300
C     -3.436500    0.812700    0.465600
C     -2.154000    0.171800    0.570200
C     -1.884800   -1.123900    0.966200
N     -0.554900   -1.500100    0.960400
C      0.195200   -0.489300    0.564500
S     -0.672700    0.945700    0.182300
C      1.632700   -0.620600    0.472900
C      2.357700   -1.756800    0.782500
C      3.761900   -1.589400    0.594400
C      4.089600   -0.325600    0.142800
S      2.679400    0.633000   -0.043700
C      5.400600    0.193700   -0.153500
C      5.792800    1.438000   -0.619300
C      7.203700    1.440200   -0.745400
C      7.647500    0.199500   -0.354600
N      6.553200   -0.545500    0.000800
