30

C     -8.317200   -0.239000    0.045600
C     -7.551500   -1.229700   -0.833600
C     -6.216400   -1.027400   -0.755500
C     -5.951500    0.051700    0.129600
C     -7.186700    0.545600    0.617800
C     -7.030800    1.603400    1.468800
S     -5.357100    1.982900    1.652500
C     -4.841400    0.708600    0.587800
C     -3.424500    0.516800    0.337300
N     -2.658400    1.617300    0.059200
C     -1.317100    1.498900   -0.191200
C     -0.547300    0.330500   -0.198700
C      0.881300    0.273600   -0.469000
Si     2.127900    1.374100    0.461500
C      3.480400    0.550500   -0.541500
C      2.976600   -0.379400   -1.377300
C      1.528700   -0.533400   -1.337100
C      4.858900    0.830700   -0.396000
S      5.464600    2.447600   -0.657600
C      7.100200    2.007000   -0.345800
C      7.163000    0.680200   -0.059800
Si     8.519900   -0.547600    0.379600
C      7.175900   -1.901000    0.493900
C      5.949200   -1.402100    0.224600
C      5.915500    0.000100   -0.083900
C     -1.303600   -0.838000    0.088400
N     -0.840900   -2.100600    0.162100
S     -2.123900   -3.070600    0.546900
N     -3.339100   -1.952100    0.632900
C     -2.791300   -0.750900    0.367100
