28

C     -7.209500    0.895100   -0.532800
C     -6.160800    1.905200   -1.006100
C     -4.907400    1.420200   -0.853500
C     -4.971000    0.114700   -0.298400
C     -6.329700   -0.225000   -0.093600
C     -6.479800   -1.469500    0.449900
S     -4.936500   -2.198900    0.710300
C     -4.063500   -0.847000    0.057000
C     -2.610500   -0.828700    0.004900
N     -1.989700    0.350400    0.310500
C     -0.621100    0.454100    0.281400
C      0.326800   -0.532100   -0.034200
C      1.768000   -0.284500   -0.022000
C      2.732700   -1.253300    0.245000
C      4.087400   -0.903200    0.243200
C      4.475100    0.410800   -0.017200
C      3.447500    1.314600   -0.259700
N      2.123800    1.002700   -0.261300
C      5.876400    0.807600   -0.028800
C      7.074400    0.143000    0.156300
C      8.103600    1.106800    0.017700
C      7.475000    2.299900   -0.243100
O      6.129100    2.129600   -0.273100
C     -0.285800   -1.762700   -0.393500
N      0.340200   -2.889100   -0.786800
S     -0.823100   -4.016600   -1.116000
N     -2.187200   -3.153200   -0.774100
C     -1.798300   -1.925700   -0.380300
