29

Si     2.559500   -3.002500    2.258700
C      3.970700   -2.007600    1.576500
C      3.543100   -0.976100    0.816900
C      4.436500   -0.016300    0.146100
C      5.835900   -0.069600    0.223300
C      6.611300    0.875700   -0.440200
C      5.963500    1.853000   -1.166100
N      4.623400    1.938900   -1.265300
C      3.858500    1.010500   -0.613900
C      2.376600    1.145200   -0.752600
N      1.971800    2.202600   -1.529800
C      0.657900    2.407000   -1.714600
C     -0.303800    1.597000   -1.154800
C     -1.751400    1.800600   -1.342700
C     -2.537500    0.901900   -0.714000
Si    -1.481000   -0.346900    0.219900
C      0.102400    0.500600   -0.349200
C      1.468800    0.245300   -0.125900
C      2.063700   -0.857000    0.689500
C      1.408900   -1.822400    1.371400
C     -3.971300    0.876000   -0.735300
S     -4.862900    2.084000   -1.638300
C     -6.390300    1.451300   -1.221200
C     -6.269000    0.352300   -0.419200
N     -7.348800   -0.333100    0.048800
C     -6.958200   -1.380500    0.820900
C     -5.630900   -1.717200    1.102600
N     -4.537300   -1.048000    0.646900
C     -4.890400    0.016700   -0.136700
