31

C     -6.909300    1.835600   -0.221500
C     -6.269000    1.643400    1.156500
C     -5.007000    1.168000    1.051100
C     -4.681800    0.995200   -0.320100
C     -5.793200    1.391200   -1.103500
C     -5.557400    1.273000   -2.445100
S     -3.960700    0.672400   -2.723600
C     -3.595100    0.571800   -1.032900
C     -2.335400    0.082100   -0.554900
S     -0.832900    0.806600   -1.016600
C      0.109300   -0.295100   -0.073800
C      1.554400   -0.174600   -0.036000
C      2.237800    0.293500    1.099000
C      3.645300    0.407500    1.149500
C      4.515200    0.069000    0.078100
C      5.965200    0.211100    0.169300
N      6.636200    0.626200   -0.906600
C      7.948200    0.753600   -0.733300
N      8.613300    0.531000    0.397000
C      7.839300    0.146800    1.407500
N      6.519400   -0.022000    1.365900
C      3.869200   -0.440800   -1.088800
N      4.454200   -0.883400   -2.217300
S      3.251900   -1.359400   -3.247000
N      1.917900   -1.072100   -2.315100
C      2.352500   -0.564100   -1.147900
C     -0.729100   -1.159200    0.568500
C     -0.581500   -2.259800    1.450900
C     -1.802700   -2.758900    1.748700
C     -2.913400   -1.974700    1.041700
C     -2.105700   -0.958500    0.307700
