27

C     -5.381200    0.490400   -1.752600
C     -6.854100    0.786900   -2.057500
C     -7.642400    0.510200   -0.993700
C     -6.837700    0.028200    0.067400
C     -7.054500   -0.403200    1.339100
S     -5.548000   -0.856700    2.052400
C     -4.637300   -0.465500    0.626600
C     -5.485600    0.004300   -0.345600
C     -3.183500   -0.633900    0.602500
C     -2.361100    0.414000    0.173900
C     -0.969900    0.260000    0.130700
C     -0.363200   -0.945300    0.511500
C     -1.190800   -1.992900    0.937900
C     -2.583000   -1.840200    0.981900
C      1.087900   -1.111200    0.467500
C      1.955600   -2.134400    0.785300
C      3.261100   -1.659200    0.506300
C      3.140100   -0.361800    0.036700
O      1.804600   -0.044100    0.009800
C      4.162700    0.555500   -0.390500
S      3.794600    1.756100   -1.593200
C      5.397100    2.387600   -1.607500
C      6.156700    1.706400   -0.708800
Si     7.943200    1.792100   -0.122000
C      7.545900    0.369900    1.088100
C      6.259600   -0.029900    0.980300
C      5.478800    0.672900    0.000300
