32

Si    -4.174500   -3.381000   -0.759900
C     -5.105500   -1.932500   -0.036400
C     -4.304600   -0.857400    0.123600
C     -4.776400    0.498600    0.455900
C     -6.076000    0.786600    0.890400
C     -6.452900    2.104600    1.127400
C     -5.516900    3.098900    0.921000
N     -4.253800    2.862900    0.514500
C     -3.879500    1.569400    0.285500
C     -2.448700    1.335500   -0.080500
N     -1.688500    2.450200   -0.263600
C     -0.365200    2.301800   -0.477200
C      0.322200    1.098900   -0.428600
C      1.759300    1.109600   -0.591700
C      2.586100   -0.024300   -0.471700
C      4.025500   -0.009800   -0.580700
S      4.786500   -0.586300   -2.021400
C      6.376300   -0.251900   -1.428000
C      6.318200    0.287000   -0.171200
C      7.359300    0.719400    0.709600
C      6.932200    1.206800    1.895500
Si     5.018700    1.160900    2.022600
C      4.982300    0.418600    0.290700
C      1.840700   -1.140300   -0.114400
C      2.312800   -2.382900    0.221200
O      1.276200   -3.167300    0.632400
C      0.138400   -2.416100    0.550400
C      0.414800   -1.175800    0.027700
C     -0.475300   -0.074500   -0.186600
C     -1.905800    0.035800   -0.153000
C     -2.884400   -1.077900   -0.238400
C     -2.666000   -2.278000   -0.817400
