30

C      4.830900    0.330400    2.461700
C      6.227200    0.448500    3.085400
C      7.187400    0.511200    2.134600
C      6.580200    0.443900    0.857100
C      7.009300    0.466400   -0.432400
S      5.646700    0.355800   -1.485600
C      4.502600    0.244300   -0.184100
C      5.180300    0.330900    1.010500
C      3.065500    0.137300   -0.407200
N      2.257100    0.634100    0.587900
C      0.891900    0.589800    0.483900
C      0.140600    0.057300   -0.562600
C     -1.298700    0.051700   -0.607000
S     -2.290400   -0.732500    0.563400
C     -3.802200   -0.276800   -0.217800
C     -5.064600   -0.675200    0.283700
Si    -5.525600   -0.776800    2.111600
C     -7.250400   -1.296400    1.568400
C     -7.340500   -1.348200    0.227400
C     -6.123200   -0.996600   -0.490100
C     -3.450600    0.454900   -1.308800
C     -4.043000    1.161400   -2.373400
C     -2.971800    1.692100   -3.102600
O     -1.727900    1.386800   -2.584200
C     -2.103900    0.633700   -1.513100
C      0.923900   -0.504400   -1.600600
N      0.469400   -1.124300   -2.705600
S      1.792200   -1.593500   -3.579000
N      3.010700   -1.069000   -2.592900
C      2.439900   -0.469600   -1.530900
