26

C      4.220100   -1.708600    1.416500
C      5.543400   -2.416000    1.730700
C      6.408200   -2.325500    0.694600
C      5.800200   -1.594200   -0.354800
C      6.163900   -1.190800   -1.602100
S      4.861200   -0.310900   -2.318800
C      3.845400   -0.479700   -0.923900
C      4.497200   -1.209400    0.038100
C      2.521800    0.062800   -0.880100
S      1.134600   -0.904100   -0.561700
C      0.024900    0.424200   -0.688700
C     -1.370500    0.246800   -0.546200
Si    -2.191800   -0.649900    0.895000
C     -3.866200   -0.228300    0.096500
C     -3.681200    0.460600   -1.049100
C     -2.292600    0.734300   -1.400900
C     -5.106100   -0.628700    0.641200
C     -5.505700   -1.685100    1.441800
C     -6.895000   -1.555500    1.683900
C     -7.316100   -0.419900    1.034100
N     -6.230100    0.134200    0.407800
C      0.775600    1.528000   -0.952300
C      0.452600    2.900700   -1.130700
C      1.578400    3.697000   -1.361800
S      3.125700    2.869600   -1.374800
C      2.159700    1.370300   -1.058000
