30

C      5.053700   -1.308900   -1.270400
C      6.530200   -1.606200   -1.550800
C      7.322700   -1.119100   -0.570800
C      6.516300   -0.485800    0.405600
C      6.748600    0.162300    1.576300
S      5.249000    0.680900    2.240000
C      4.299000    0.022000    0.934100
C      5.152700   -0.574300    0.029800
C      2.853700    0.140400    0.907000
S      1.912300   -0.510900   -0.393100
C      0.377100   -0.004900    0.247700
C     -0.864400   -0.265000   -0.412300
C     -2.263200    0.116500    0.030600
C     -3.148300   -0.426500   -1.069000
C     -2.358300   -1.017900   -1.980200
C     -0.976200   -0.920100   -1.582700
C     -4.610000   -0.277500   -1.045500
C     -5.286200    0.384000    0.012600
C     -6.690100    0.554700    0.083900
C     -7.566500    0.079800   -0.899200
C     -6.970200   -0.592700   -1.989800
N     -7.641000   -1.117300   -3.026800
S     -6.505500   -1.789000   -4.027900
N     -5.117000   -1.447000   -3.195800
C     -5.464700   -0.782300   -2.077900
C      0.632200    0.642700    1.429400
C     -0.157500    1.281100    2.424800
C      0.642600    1.761300    3.400800
C      2.111000    1.460100    3.109500
C      1.999600    0.731300    1.808100
