32

C      4.883300    2.083100    1.156700
C      6.185100    2.603600    1.776000
C      7.043300    1.592200    2.039300
C      6.451200    0.367100    1.646700
C      6.822300   -0.941300    1.657100
S      5.549800   -1.899300    0.991000
C      4.530200   -0.526100    0.693000
C      5.163600    0.617300    1.115900
C      3.222100   -0.670300    0.108400
S      1.857400    0.098900    0.826300
C      0.758200   -0.528600   -0.335400
C     -0.652900   -0.199000   -0.221300
C     -1.164600    1.111400   -0.373100
C     -2.552100    1.441100   -0.262700
C     -3.577600    0.501400    0.016000
C     -4.984500    0.864400    0.132500
C     -5.629800    0.862700    1.379000
C     -6.976300    1.217800    1.488500
C     -7.695200    1.583000    0.352600
C     -7.068900    1.595200   -0.891800
C     -5.722100    1.240300   -1.000300
C     -3.067500   -0.803800    0.163100
C     -3.845800   -1.911200    0.414400
S     -2.902900   -3.339000    0.544700
C     -1.441600   -2.487900    0.248500
C     -1.660700   -1.143700    0.047800
C      1.420500   -1.297100   -1.266300
N      0.797100   -1.907500   -2.316500
C      1.685000   -2.594400   -3.082400
C      3.059900   -2.672500   -2.843600
N      3.708900   -2.074400   -1.810500
C      2.843000   -1.379900   -1.013000
