31

C     -5.979800    0.201700   -1.375700
C     -7.435700   -0.235100   -1.574700
C     -7.862500   -1.008700   -0.550400
C     -6.808700   -1.166000    0.382500
C     -6.638800   -1.822000    1.562500
S     -5.027300   -1.563700    2.131500
C     -4.600800   -0.574500    0.774600
C     -5.673000   -0.456400   -0.072400
C     -3.300400    0.010100    0.640800
S     -1.860100   -0.936700    0.599300
C     -0.840100    0.434700    0.393100
C      0.605600    0.316400    0.267100
C      1.366600   -0.266500    1.287200
C      2.756100   -0.380300    1.164200
C      3.420600    0.080300    0.018100
C      2.652800    0.667200   -0.998100
C      1.263100    0.781200   -0.877900
C      4.866800   -0.027900   -0.111400
C      5.751400    1.072300   -0.289000
C      7.184500    0.961300   -0.413200
C      7.894300   -0.260500   -0.379300
C      7.013600   -1.319800   -0.214200
C      7.331100   -2.649800   -0.150000
O      6.186100   -3.384400   -0.001200
C      5.134100   -2.508500    0.028300
C      5.595800   -1.221600   -0.087200
C     -1.580400    1.586000    0.364800
S     -1.113900    3.326400    0.200100
C     -2.834600    3.650200    0.338500
C     -3.664700    2.535300    0.493900
C     -2.943300    1.311200    0.503500
