32

C     -5.106000   -1.785200   -0.782800
C     -6.495900   -2.242800   -1.238800
C     -7.408000   -1.254500   -1.101300
C     -6.771800   -0.107300   -0.567900
C     -7.165600    1.145300   -0.216200
S     -5.808300    2.015900    0.393600
C     -4.712700    0.682500    0.176900
C     -5.398000   -0.381300   -0.362500
C     -3.321500    0.786300    0.531500
S     -2.080300   -0.125400   -0.284400
C     -0.783300    0.535200    0.657700
C      0.590100    0.175300    0.465400
S      1.902200    1.317900    0.614000
C      3.122200    0.157100    0.226100
C      4.513900    0.457500    0.133200
S      5.423900    0.999600    1.501800
C      6.898300    1.099600    0.604000
C      6.664700    0.732100   -0.685500
C      7.435800    0.623800   -1.868400
C      6.638400    0.213500   -2.881300
C      5.194600    0.009100   -2.408700
C      5.327600    0.368200   -0.966600
C      2.518600   -1.031000    0.009000
N      3.111000   -2.223400   -0.300900
C      2.004400   -3.061800   -0.398700
C      0.803300   -2.368000   -0.140700
C      1.145300   -1.015200    0.132500
C     -1.324300    1.398900    1.547700
N     -0.675900    2.129800    2.505600
C     -1.733100    2.802600    3.108200
C     -2.966000    2.464400    2.514500
C     -2.696500    1.531800    1.474800
