29

C      6.205100   -0.616500    0.493400
C      7.632900   -0.093900    0.312000
C      7.636500    1.132500   -0.255700
C      6.300800    1.535300   -0.498500
C      5.704400    2.633300   -1.030600
S      3.997000    2.420300   -1.002500
C      4.083900    0.833400   -0.265800
C      2.874600    0.128800    0.010500
C      1.438100    0.561000   -0.221100
C      0.631900   -0.625400    0.266000
C      1.492000   -1.555700    0.714700
C      2.850700   -1.101000    0.554500
C     -0.779800   -0.803300    0.308000
S     -1.815400    0.589500    0.453500
C     -3.280100   -0.329200    0.451700
C     -2.977900   -1.661900    0.339800
C     -3.732700   -2.947500    0.254900
C     -2.583300   -3.939000    0.075800
C     -1.387400   -3.309100    0.076300
C     -1.584400   -1.911200    0.243200
C     -4.570900    0.287500    0.563600
S     -5.866900   -0.369800    1.522700
C     -6.970100    0.911400    1.125000
C     -6.326700    1.755600    0.295100
C     -6.533600    2.952900   -0.431200
C     -5.332600    3.231300   -1.117500
N     -4.361100    2.265400   -0.864900
C     -5.025200    1.425600   -0.014100
C      5.411900    0.520800   -0.066700
