30

C      6.433600   -0.587700    0.865300
C      7.834200    0.027700    0.954400
C      7.806700    1.352200    0.683700
C      6.474000    1.740600    0.403100
C      5.849400    2.903000    0.074900
S      4.161600    2.604700   -0.121100
C      4.308900    0.909600    0.242300
C      3.169800    0.034100    0.245600
C      3.077900   -1.322100    0.489200
C      1.714700   -1.695100    0.369400
C      0.989500   -0.563800    0.046200
N      1.890800    0.472000   -0.014800
C     -0.415100   -0.390600   -0.186300
S     -1.589600   -1.589300    0.301700
C     -2.938000   -0.677500   -0.271600
C     -4.302900   -1.133100   -0.172000
C     -4.765900   -2.347500   -0.738600
C     -6.118100   -2.811000   -0.647100
C     -7.145500   -2.114100    0.022600
C     -6.686300   -0.923900    0.587100
C     -7.509400   -0.086100    1.298200
S     -6.650600    1.282900    1.880100
C     -5.173800    0.748700    1.178000
C     -5.326300   -0.440400    0.501400
C     -2.466700    0.459700   -0.818000
O     -3.194100    1.449700   -1.408100
C     -2.175200    2.308200   -1.768700
C     -0.896400    1.861400   -1.414800
C     -1.100400    0.622200   -0.773700
C      5.624200    0.612600    0.500900
