28

C     -4.773200    0.518000   -1.826200
C     -6.138400    0.716900   -2.492200
C     -7.145200    0.362600   -1.662200
C     -6.599500   -0.080700   -0.432800
C     -7.108800   -0.542100    0.740200
S     -5.814400   -0.895700    1.818700
C     -4.578100   -0.417400    0.681100
C     -3.171700   -0.488700    1.026700
C     -2.612600   -0.811200    2.251600
C     -1.186200   -0.786800    2.241300
C     -0.670500   -0.452500    1.005000
S     -1.932000   -0.162100   -0.116100
C      0.733400   -0.306900    0.606500
C      1.223300   -0.765600   -0.616400
C      2.576300   -0.608700   -0.932100
C      3.440800    0.000300   -0.019100
N      2.977200    0.454500    1.170700
C      1.660000    0.291200    1.453800
C      4.865400    0.191700   -0.323800
N      5.275700    0.078400   -1.644800
C      6.579300    0.255400   -2.019900
C      7.654900    0.550900   -1.195400
C      7.306000    0.662000    0.162400
N      8.171400    0.931200    1.153400
S      7.288300    0.948400    2.556200
N      5.780000    0.606300    1.972100
C      5.881100    0.478900    0.635300
C     -5.185200   -0.005300   -0.485500
