27

Si    -2.814400    3.753500   -0.745100
C     -4.058100    2.392800   -0.489900
C     -3.463700    1.204800   -0.241000
C     -4.187800   -0.057000   -0.001200
C     -5.591000   -0.119500   -0.009600
C     -6.213300   -1.330100    0.220800
N     -5.543500   -2.467100    0.455900
C     -4.188800   -2.381400    0.459200
C     -3.430800   -1.221800    0.240800
C     -1.929500   -1.203700    0.261200
C     -1.203600   -2.383800    0.505100
C      0.185600   -2.398600    0.533200
C      0.908900   -1.229700    0.318400
C      2.314100   -1.279900    0.356400
C      3.084500   -0.136900    0.151600
C      2.366700    1.020800   -0.088000
N      1.013800    1.096500   -0.129300
C      0.250100   -0.006800    0.067900
C     -1.180200   -0.000600    0.037800
C     -1.980800    1.243900   -0.224900
C     -1.492800    2.481200   -0.468500
C      4.549800   -0.158800    0.188100
C      5.286300    0.752500    0.956800
C      6.679500    0.700400    0.969400
C      7.307700   -0.268900    0.207600
N      6.645800   -1.167700   -0.548900
C      5.292600   -1.089400   -0.541300
