21

C     -5.696700    0.777400   -0.315300
C     -5.728400   -0.522300    0.207200
C     -4.549700   -1.223500    0.489700
C     -3.367600   -0.546100    0.217900
O     -2.096500   -0.997900    0.400200
C     -1.295000    0.045700   -0.019000
C      0.145400   -0.015700    0.006400
N      0.832800   -1.070900    0.431000
C      2.144400   -0.706600    0.285200
C      3.333500   -1.387100    0.559300
C      4.524500   -0.725200    0.293800
O      5.798200   -1.176500    0.475800
C      6.568800   -0.131600    0.056100
N      5.911200    0.926500   -0.369600
C      4.598000    0.562100   -0.223800
C      3.407800    1.240800   -0.497200
C      2.217700    0.577400   -0.231000
O      0.948000    1.028800   -0.413200
N     -1.979700    1.101000   -0.443600
C     -3.292700    0.735200   -0.297200
C     -4.479100    1.425400   -0.575300
