18

C     -5.157900    0.504600   -0.956400
C     -5.267400   -0.236400    0.227800
C     -4.132400   -0.665100    0.927200
C     -2.911700   -0.306900    0.368900
O     -1.669400   -0.595300    0.845100
C     -0.802500   -0.018700   -0.066800
C      0.635100   -0.087900    0.061000
N      1.467400    0.458400   -0.802800
C      2.775500    0.226900   -0.416800
C      3.928100    0.663200   -1.100900
C      5.195600    0.356600   -0.595200
C      5.326600   -0.376900    0.579700
C      4.198900   -0.821400    1.277100
C      2.931000   -0.507500    0.759700
S      1.376000   -0.906200    1.378900
N     -1.428500    0.598600   -1.061900
C     -2.760300    0.422200   -0.795700
C     -3.903300    0.844900   -1.485600
