22

C     -6.142600    1.298200   -0.320500
C     -6.471400    0.368800    0.661000
C     -5.479600   -0.390500    1.289700
C     -4.143500   -0.189900    0.904100
S     -2.720600   -0.959100    1.483700
C     -1.756200   -0.020900    0.406000
C     -0.286900   -0.177700    0.362200
C      0.464500    0.596800   -0.521300
C      1.842800    0.385700   -0.497900
N      2.849200    0.972600   -1.227300
C      4.072100    0.454100   -0.873000
C      5.350700    0.746400   -1.343000
C      6.372300    0.019400   -0.750900
N      6.202400   -0.913000    0.211800
C      4.948000   -1.179600    0.652700
C      3.845100   -0.500000    0.119400
C      2.435300   -0.542400    0.355800
C      1.607900   -1.278500    1.211000
N      0.264500   -1.089900    1.205400
N     -2.436300    0.823300   -0.351000
C     -3.790400    0.735800   -0.076900
C     -4.808700    1.489200   -0.696000
