18

C     -4.977000    0.828600    0.196400
C     -5.263200   -0.466100   -0.224900
C     -4.236200   -1.364000   -0.531800
C     -2.908300   -0.923900   -0.403400
S     -1.445200   -1.780200   -0.702000
C     -0.543600   -0.395000   -0.258400
C      0.887600   -0.354900   -0.262500
C      1.844600   -1.298000   -0.583400
C      3.127100   -0.704300   -0.404000
C      4.444700   -1.149200   -0.565900
N      5.487800   -0.321800   -0.307000
C      5.232600    0.938600    0.109600
C      3.967700    1.474700    0.300700
C      2.915000    0.604700    0.028000
N      1.555600    0.789300    0.104900
N     -1.243900    0.660600    0.096400
C     -2.596700    0.370700    0.017500
C     -3.650900    1.256300    0.320800
