29

Si    -3.224300   -1.280900    3.834300
C     -4.399700   -0.467200    2.651800
C     -3.774900   -0.111400    1.513000
C     -4.413900    0.343800    0.328400
C     -5.737500    0.679000   -0.014400
C     -5.697800    1.007200   -1.355300
O     -4.431200    0.889200   -1.850200
C     -3.661200    0.478400   -0.812500
C     -2.237900    0.286400   -0.931300
C     -1.480300    0.424700   -2.087300
C     -1.894900    0.667200   -3.371700
O     -0.812900    0.721800   -4.204700
C      0.300600    0.521900   -3.439100
C     -0.062500    0.332700   -2.129100
C      0.773500    0.140100   -1.007400
C      2.190700    0.116600   -1.070800
C      2.957000    0.014200    0.092300
C      2.270400   -0.036000    1.308900
C      0.863500   -0.024400    1.366100
C      0.035000    0.011300    0.221300
C     -1.446900   -0.018600    0.242600
C     -2.289100   -0.371400    1.470000
C     -1.875500   -1.072400    2.550000
C      4.424800   -0.009600    0.038800
C      5.119500   -0.906700   -0.783000
C      6.513400   -0.905300   -0.808500
C      7.184000    0.000300   -0.005200
N      6.563700    0.884500    0.802100
C      5.208000    0.858600    0.802000
