18

C      4.882100   -0.815100    0.460600
C      5.002600    0.214200   -0.462600
C      3.868000    0.869000   -0.947200
C      2.599800    0.467900   -0.483800
S      1.078000    1.119200   -0.932400
C      0.190400    0.055800    0.086100
C     -1.294000    0.112000    0.162200
C     -1.991100   -0.777000    1.009600
C     -3.391000   -0.781800    1.132500
C     -4.077800    0.151200    0.363500
N     -5.401100    0.453000    0.208200
N     -5.587400    1.455800   -0.665200
N     -4.390300    1.831100   -1.099500
C     -3.449400    1.048000   -0.484900
C     -2.049600    1.035000   -0.592100
C      1.069300   -0.782000    0.754700
C      2.453700   -0.561900    0.442000
C      3.620300   -1.208600    0.916600
