22

C      6.510500   -0.540300    0.672500
C      6.703500    0.540100   -0.177000
C      5.611500    1.194900   -0.751300
C      4.311500    0.741100   -0.454200
S      2.830800    1.381800   -1.036300
C      1.866600    0.244900   -0.179700
C      0.382300    0.261500   -0.265700
C     -0.317600    1.192800   -1.040300
C     -1.719400    1.194000   -1.110000
C     -2.482100    0.243300   -0.391700
C     -1.786000   -0.683300    0.379000
C     -0.373800   -0.685000    0.449600
S     -2.853100   -1.760100    1.182600
C     -4.251600   -1.017500    0.523700
C     -5.591900   -1.388900    0.753200
C     -6.612300   -0.668200    0.130200
C     -6.311500    0.398500   -0.702900
C     -4.980300    0.762500   -0.927000
C     -3.918100    0.051000   -0.309300
C      2.689500   -0.608100    0.538900
C      4.092900   -0.340500    0.395000
C      5.217600   -0.986000    0.963400
