19

C      5.363900    0.850600   -0.344500
C      5.435700   -0.535200   -0.366800
C      4.272500   -1.306800   -0.317700
C      3.025500   -0.655700   -0.245300
S      1.475800   -1.387400   -0.176000
C      0.641000    0.113600   -0.113300
C     -0.840700    0.175500   -0.036800
C     -1.496000    1.412900    0.013100
C     -2.891700    1.490200    0.085400
C     -3.676500    0.349800    0.110300
N     -5.017800    0.464800    0.180300
C     -5.717000   -0.690000    0.200700
C     -5.100900   -1.922800    0.152800
N     -3.758800   -2.054500    0.082500
C     -3.041500   -0.912600    0.061100
C     -1.651400   -0.973300   -0.010700
C      1.556900    1.153200   -0.146100
C      2.928200    0.733200   -0.221700
C      4.123100    1.491000   -0.272600
