32

Si    -3.541100   -3.902500   -0.484300
C     -4.789400   -2.618800    0.003700
C     -4.226900   -1.398400    0.088900
C     -4.926000   -0.173600    0.248200
C     -6.271600    0.168900    0.481600
C     -6.301000    1.548900    0.494700
O     -5.056700    2.064700    0.281600
C     -4.227600    1.003600    0.123800
C     -2.800500    1.156600   -0.076500
C     -2.176800    2.423100   -0.211000
N     -2.759600    3.632900   -0.284600
S     -1.559000    4.753300   -0.458300
N     -0.228300    3.769300   -0.439400
C     -0.676600    2.508900   -0.289000
C      0.133400    1.331700   -0.175600
C      1.540500    1.439700   -0.177600
C      2.307600    0.302600    0.014100
N      1.728600   -0.897400    0.224200
C      0.369800   -0.971600    0.213200
C     -0.526900    0.080300   -0.030400
C     -1.973200   -0.024700   -0.083800
C     -2.742200   -1.340700   -0.149800
C     -2.255600   -2.533200   -0.561900
C      3.767800    0.337000   -0.006600
C      4.528200    1.010200   -1.007000
C      5.959700    1.063600   -1.050600
C      6.795800    0.452500   -0.096500
C      6.061200   -0.205800    0.888200
C      6.668200   -0.866100    1.928000
S      5.508000   -1.560400    2.986200
C      4.192600   -0.973500    2.047200
C      4.617100   -0.270700    0.941700
