19

C     -5.022400   -1.129600   -0.847400
C     -5.020800    0.122800   -1.445300
C     -3.851200    0.884600   -1.493100
C     -2.673400    0.361600   -0.924800
S     -1.130000    1.111000   -0.865700
C     -0.402700   -0.207400   -0.039200
C      1.023600   -0.166400    0.326800
C      1.656700   -1.203500    0.993500
N      2.966500   -1.174900    1.333900
C      3.651800   -0.077500    0.994800
N      4.950900   -0.019700    1.318400
C      5.618400    1.097200    0.965200
C      5.004800    2.136600    0.302600
N      3.699400    2.100000   -0.032700
C      3.013300    1.000000    0.307300
N      1.715200    0.943500   -0.016600
C     -1.340100   -1.202100    0.182600
C     -2.650200   -0.893200   -0.319100
C     -3.850200   -1.644000   -0.284800
