14

C     -3.592100   -0.462900   -0.773100
C     -3.790900    0.292500    0.374200
C     -2.702300    0.763100    1.111900
C     -1.398900    0.459000    0.673100
S      0.082500    0.927100    1.414400
C      1.017500    0.138800    0.230700
C      2.589900    0.132500    0.250700
C      3.368800   -0.499800   -0.698100
S      5.031900   -0.280900   -0.333100
C      4.584600    0.630800    1.047700
N      3.295200    0.780100    1.250800
C      0.232500   -0.474600   -0.718800
C     -1.173400   -0.299300   -0.478200
C     -2.296500   -0.762500   -1.205300
