14

C     -3.470800    1.005700    0.294400
C     -3.741300   -0.342500    0.082800
C     -2.703900   -1.261000   -0.106800
C     -1.382000   -0.785800   -0.077800
S      0.090000   -1.654200   -0.275400
C      0.981100   -0.200100   -0.069400
C      2.566900   -0.140300   -0.118500
C      3.372200   -1.243400   -0.329900
S      5.024700   -0.777800   -0.314700
C      4.543400    0.842400   -0.030400
N      3.250300    1.056200    0.052800
N      0.258700    0.880600    0.135200
C     -1.086800    0.561900    0.132800
C     -2.150700    1.467200    0.321200
