18

C     -5.187400   -0.747800    0.702500
C     -5.361000    0.096800   -0.385200
C     -4.257600    0.659800   -1.030600
C     -2.965100    0.356800   -0.559800
S     -1.469100    0.928900   -1.191000
C     -0.553600    0.069600   -0.035900
C      0.882800    0.123600   -0.010700
N      1.611700   -0.536800    0.878700
C      2.906500   -0.219500    0.559000
C      4.121900   -0.609400    1.135400
C      5.308500   -0.109800    0.576400
C      5.282100    0.754200   -0.526400
C      4.073900    1.151900   -1.112300
C      2.924200    0.634700   -0.528400
O      1.634500    0.861100   -0.901300
C     -1.368400   -0.643100    0.819100
C     -2.765500   -0.490000    0.532500
C     -3.902600   -1.045800    1.166400
