14

C     -3.406300    0.745100    0.433600
C     -3.624700   -0.514900   -0.106100
C     -2.549400   -1.320900   -0.486900
C     -1.238900   -0.834500   -0.314500
S      0.230600   -1.643900   -0.708300
C      1.179600   -0.341600   -0.171700
C      2.743500   -0.312700   -0.205000
N      3.465100    0.770700    0.243500
C      4.696200    0.377600    0.037100
O      4.798300   -0.862000   -0.503200
N      3.492300   -1.325900   -0.666100
C      0.414200    0.698800    0.301600
C     -0.993700    0.430700    0.226700
C     -2.103800    1.224400    0.603200
