29

Si    -6.180900    2.194200   -1.750300
C     -6.372400    0.971400   -0.357300
C     -5.184800    0.433600   -0.021900
C     -4.940000   -0.532100    0.992400
C     -5.747000   -1.214200    1.922300
C     -4.884800   -2.026700    2.632900
O     -3.599700   -1.883100    2.194300
C     -3.650100   -0.967800    1.193000
C     -2.450300   -0.557300    0.477800
C     -1.188700   -1.084400    0.785000
C     -0.099900   -0.622200    0.038300
N      1.232100   -0.958500    0.115300
C      1.967900   -0.247100   -0.803900
C      1.077200    0.541600   -1.506400
C     -0.225500    0.322000   -0.978300
C     -1.501600    0.843700   -1.278600
C     -2.623500    0.409000   -0.552800
C     -4.011400    0.921800   -0.817200
C     -4.342400    1.836000   -1.755200
C      3.413800   -0.416500   -0.949600
C      3.880000   -1.010300   -2.132600
C      5.238400   -1.240300   -2.322700
C      6.146700   -0.878200   -1.331400
C      5.714100   -0.271300   -0.142200
C      6.647900    0.094600    0.842000
C      6.242200    0.712500    2.024000
C      4.896400    0.979100    2.235600
C      3.955600    0.619600    1.268100
C      4.333000   -0.022500    0.063500
