24

C     -4.626800    1.888300    0.310700
C     -6.054300    2.322100    0.482500
C     -6.874500    1.313800    0.157900
C     -6.093800    0.170700   -0.240500
C     -4.784200    0.464700   -0.168400
C     -3.669000   -0.386000   -0.467600
C     -2.238100    0.001100   -0.174700
C     -1.469100   -1.199100   -0.676400
C     -2.337300   -2.101200   -1.163000
C     -3.683600   -1.601400   -1.039300
C     -0.040900   -1.299700   -0.597900
C      0.809200   -0.332200    0.194500
C      2.201100   -0.848000   -0.066900
C      2.134300   -1.934400   -0.853700
C      0.758800   -2.203700   -1.188800
C      3.383400   -0.245300    0.522300
C      3.482300    0.099500    1.893600
C      4.640600    0.690600    2.494800
C      5.818100    1.009500    1.788200
C      5.714400    0.689000    0.435000
C      6.734300    0.931600   -0.451700
S      6.296900    0.464400   -2.045000
C      4.737300   -0.059400   -1.542700
C      4.553800    0.088600   -0.186300
