25

C     -6.283300    0.058500    0.083800
C     -7.169200   -1.154000    0.129800
C     -6.416400   -2.261700    0.162200
C     -5.023700   -1.894600    0.141400
C     -4.904300   -0.556600    0.096000
C     -3.691100    0.207000    0.062900
C     -2.311000   -0.412600    0.075400
C     -1.414800    0.801000    0.029200
C     -2.175000    1.909500   -0.004000
C     -3.569500    1.544000    0.016900
C      0.041300    0.666300    0.025100
C      0.896700    1.761100   -0.023800
C      2.278100    1.549100   -0.021400
C      2.797700    0.252600    0.024200
C      1.856500   -0.774100    0.067000
N      0.511300   -0.600900    0.073700
C      4.236100   -0.019800    0.045200
C      4.842700   -0.877000    0.999900
C      6.228400   -1.163600    1.043400
C      7.149000   -0.622700    0.134000
C      6.616800    0.241600   -0.850700
N      7.327400    0.856100   -1.808600
S      6.245200    1.736400   -2.705400
N      4.830200    1.388700   -1.915300
C      5.136500    0.555000   -0.904200
