23

C      4.034200   -2.574200    0.885100
C      5.447200   -3.045600    1.076800
C      6.298100   -2.056300    0.773200
C      5.553500   -0.890900    0.370300
C      4.235700   -1.150600    0.421600
C      3.146900   -0.272700    0.104500
C      1.700100   -0.686900    0.206400
C      0.950400    0.565100   -0.226500
C      1.866700    1.507100   -0.516100
C      3.201600    0.999700   -0.315600
C     -0.460600    0.769700   -0.328800
S     -1.521600   -0.552800    0.084100
C     -2.985800    0.312800   -0.239000
C     -4.283600   -0.312400   -0.063300
C     -4.554600   -1.605900    0.358800
C     -5.948900   -1.899900    0.422200
C     -6.714900   -0.823100    0.046600
S     -5.756200    0.522700   -0.376000
C     -2.661200    1.582200   -0.652200
C     -3.400100    2.810700   -1.077800
C     -2.242800    3.759800   -1.364500
C     -1.053000    3.162900   -1.137400
C     -1.257400    1.824800   -0.698400
