27

C      5.337100    1.057900   -0.987200
C      6.755300    0.947500   -0.497400
C      6.781200    0.307300    0.680100
C      5.437400   -0.037400    1.067100
C      4.579200    0.378500    0.120800
C      3.136000    0.271000    0.172800
C      2.346500    0.730600    1.258200
C      0.912500    0.648600    1.309500
C      0.117900    0.086600    0.282900
C     -1.317800   -0.025800    0.334200
S     -2.365800    1.341600    0.376400
C     -3.829500    0.378800    0.425300
C     -5.139500    0.984700    0.470700
C     -5.480600    2.292200    0.162500
C     -6.872200    2.560800    0.323000
C     -7.560700    1.451300    0.752400
S     -6.533600    0.103500    0.957300
C     -3.436800   -0.920500    0.420300
C     -3.947200   -2.250400    0.440600
C     -2.844600   -3.130300    0.415000
N     -1.640000   -2.436600    0.376500
C     -2.075500   -1.141100    0.374000
C      0.904100   -0.372300   -0.781500
C      0.478600   -0.964500   -1.947000
N      1.600000   -1.266400   -2.686400
C      2.735900   -0.875100   -2.010700
C      2.336900   -0.284600   -0.835300
