25

C     -5.727300   -0.259400    1.566600
C     -7.156200   -0.009200    1.180700
C     -7.207000    0.472600   -0.067300
C     -5.870500    0.579100   -0.593600
C     -4.976700    0.165000    0.324400
C     -3.511000    0.106400    0.206500
C     -2.847700    0.562400   -0.942700
C     -1.451600    0.506300   -1.048300
C     -0.679800   -0.011000   -0.005300
C     -1.329000   -0.464600    1.146700
C     -2.725000   -0.405200    1.249800
C      0.766200   -0.084400   -0.115300
S      1.775500    1.309900   -0.269300
C      3.257100    0.384000   -0.306800
C      4.560800    1.036100   -0.407100
C      5.654700    0.572600    0.331500
C      6.894400    1.200600    0.218000
C      7.007800    2.281100   -0.639600
N      5.984300    2.761800   -1.374700
C      4.790400    2.129600   -1.240900
C      2.904900   -0.920300   -0.204400
C      3.467300   -2.224600   -0.177400
C      2.398700   -3.139100   -0.063400
N      1.168700   -2.487400   -0.021000
C      1.555100   -1.179500   -0.105100
