27

C      5.511400   -0.509200    2.571900
C      6.939400   -0.072400    2.726600
C      7.235600    0.836200    1.789100
C      6.076500    1.070000    0.966700
C      5.049100    0.307800    1.386700
C      3.686700    0.231800    0.836000
C      3.292300    1.008500   -0.261500
C      1.991700    0.930500   -0.780300
C      1.038600    0.072800   -0.219400
C      1.429200   -0.705700    0.876700
C      2.730500   -0.626900    1.394600
C     -0.314900   -0.002000   -0.759600
S     -1.736600   -0.156500    0.214800
C     -2.831600   -0.151200   -1.145800
C     -4.255200   -0.250100   -0.981000
S     -5.379100    0.430900   -2.133600
C     -6.784700   -0.072000   -1.253800
C     -6.366900   -0.720400   -0.149800
N     -7.156200   -1.280000    0.812100
C     -6.198300   -1.799800    1.678500
C     -4.889000   -1.541000    1.219700
C     -5.000300   -0.816200   -0.000100
C     -2.069500   -0.031000   -2.261400
C     -2.187500    0.028900   -3.664800
C     -0.877100    0.144900   -4.140800
O      0.084100    0.161600   -3.150400
C     -0.711900    0.050100   -2.048100
