31

Si    -1.521500   -1.077500   -1.090000
C     -2.540400    0.178600   -0.075600
C     -1.773200    1.059400    0.600600
C     -0.350100    0.814200    0.401100
C      0.023000   -0.252900   -0.449400
C      1.371500   -0.611900   -0.707500
S      1.984300   -1.959500   -1.602800
C      3.635300   -1.519700   -1.351500
C      4.778100   -2.247700   -1.795000
C      6.082500   -1.763400   -1.618700
C      6.107800   -0.493600   -1.059500
C      7.295400    0.190500   -0.924100
S      7.046600    1.792300   -0.342300
C      5.338000    1.575500   -0.275400
C      5.015900    0.289300   -0.600700
C      3.699200   -0.307500   -0.669800
C      2.450500    0.121100   -0.191100
C      2.101900    1.146900    0.772000
C      2.835800    1.873200    1.660900
O      1.985200    2.684200    2.368400
C      0.710700    2.408400    1.949300
C      0.735800    1.429000    0.987000
C     -3.985700    0.182600   -0.119800
C     -4.773300    1.166600   -0.768100
C     -6.214800    1.157600   -0.798800
C     -7.020600    0.173500   -0.179100
C     -6.224800   -0.766700    0.461100
C     -6.648600   -1.850800    1.180900
O     -5.562500   -2.523400    1.671800
C     -4.440400   -1.856100    1.258100
C     -4.797900   -0.772400    0.496900
