29

C      6.501000    0.658500    0.479500
C      7.830300    0.269200   -0.098800
C      7.643900   -0.438900   -1.219700
C      6.232000   -0.574300   -1.471200
C      5.530300    0.052600   -0.508200
C      4.072300    0.161900   -0.374900
C      3.480600    0.769800    0.735900
C      2.090400    0.860500    0.837200
C      1.300600    0.333000   -0.179900
N      1.837900   -0.245800   -1.277400
C      3.192200   -0.320000   -1.343500
C     -0.168600    0.411300   -0.148200
C     -0.793100    1.263900   -1.074200
C     -2.172500    1.428300   -1.081300
C     -2.972200    0.742700   -0.159300
C     -4.418600    0.947600   -0.237700
S     -5.147200    2.352000    0.451800
C     -6.738800    1.879600   -0.021100
C     -6.703600    0.687400   -0.686700
S     -8.017300   -0.304600   -1.415300
C     -6.723300   -1.409400   -1.867800
C     -5.428200   -1.036300   -1.488800
C     -5.402900    0.198800   -0.791400
C     -2.380900   -0.143600    0.783400
C     -3.146700   -0.866600    1.732600
C     -2.563400   -1.750900    2.638800
C     -1.193500   -1.943500    2.620000
C     -0.410500   -1.241000    1.703800
C     -0.967300   -0.320600    0.780400
