30

C     -6.080700    1.009300   -0.612900
C     -7.446400    0.466200   -0.925500
C     -7.390900   -0.868900   -1.016400
C     -6.039300   -1.309100   -0.781600
C     -5.248100   -0.247700   -0.543400
C     -3.822200   -0.169700   -0.254500
N     -3.277800    1.074700   -0.056600
C     -1.945900    1.239400    0.220200
C     -0.978000    0.242900    0.335500
C      0.412600    0.492400    0.633900
S      1.672300    0.164500   -0.485400
C      2.913400    0.707700    0.587600
C      4.296500    0.686000    0.222900
S      5.363500    2.045500    0.410400
C      6.736500    1.204900   -0.245100
C      6.333800   -0.041000   -0.564800
C      6.827200   -1.252900   -1.105100
C      5.749500   -2.163800   -1.126700
N      4.582400   -1.592200   -0.623900
C      5.010200   -0.330600   -0.315400
C      2.309200    1.131400    1.727600
C      2.777700    1.663100    2.960600
C      1.742900    1.938500    3.861000
S      0.115800    1.573000    3.312200
C      0.917200    1.024600    1.787600
C     -1.482400   -1.066700    0.147100
N     -0.782800   -2.215300    0.217400
S     -1.845400   -3.448200   -0.077900
N     -3.245100   -2.598500   -0.307200
C     -2.951600   -1.292400   -0.159600
