20

C      3.681900   -2.037900    0.124100
C      4.658000   -1.103400    0.447900
C      4.279200    0.209700    0.652800
N      3.021400    0.680300    0.565900
C      2.060800   -0.235900    0.247900
C      2.357800   -1.582400    0.024700
S      0.953000   -2.500800   -0.357100
C     -0.104200   -1.132100   -0.238200
C      0.672200   -0.027100    0.090700
C     -0.026100    1.216400    0.236200
C      0.439800    2.458700    0.547800
N     -0.672600    3.272400    0.549400
C     -1.804500    2.535100    0.242200
C     -1.414900    1.228500    0.040200
C     -2.250200    0.144100   -0.293100
C     -3.644500    0.127600   -0.495600
C     -4.258000   -1.076700   -0.820700
C     -3.469500   -2.214300   -0.932500
N     -2.129000   -2.240400   -0.746100
C     -1.525600   -1.067300   -0.428500
