24

C     -4.182500   -1.504300   -0.058100
C     -3.971800   -2.871100   -0.007800
C     -2.667200   -3.316200    0.003900
N     -1.584200   -2.503800   -0.030500
C     -1.740900   -1.160900   -0.080200
C     -3.068300   -0.633000   -0.094900
C     -3.117400    0.785300   -0.147800
C     -4.282300    1.518900   -0.170800
S     -3.974800    3.205500   -0.235000
C     -2.276300    2.961100   -0.232300
C     -1.947800    1.624800   -0.183600
C     -0.618100    1.127400   -0.170000
C      0.566500    1.920400   -0.204100
C      1.837300    1.339300   -0.187200
C      3.031300    2.163200   -0.222500
C      4.364300    1.681100   -0.209500
C      4.368800    0.297100   -0.157800
C      5.465100   -0.522200   -0.131300
O      5.056300   -1.827600   -0.080900
C      3.686700   -1.831000   -0.075600
C      3.220300   -0.542400   -0.122000
C      1.883100   -0.086700   -0.134000
C      0.708400   -0.879800   -0.099900
C     -0.576200   -0.308900   -0.116400
