24

C      7.521400   -0.188000   -0.393000
C      6.824700   -1.034000    0.446700
N      5.473900   -1.022200    0.534200
C      4.809800   -0.128100   -0.251300
C      3.329000   -0.131700   -0.140000
C      2.498900    0.727600   -0.880900
C      1.100400    0.697900   -0.751200
C      0.470000   -0.192200    0.124800
C     -0.984400   -0.226600    0.262800
C     -1.865800   -0.974100    1.024100
C     -3.174500   -0.528600    0.704000
C     -4.478400   -0.851800    1.100400
C     -5.535800   -0.153900    0.526600
O     -6.857100   -0.337900    0.794400
C     -7.541700    0.545400    0.020600
C     -6.676600    1.296500   -0.742900
C     -5.368400    0.850100   -0.421900
C     -4.063900    1.172300   -0.817400
C     -3.007300    0.473700   -0.242900
O     -1.688000    0.657700   -0.510600
C      1.281000   -1.053100    0.868600
C      2.677600   -1.021000    0.736800
C      5.540400    0.715300   -1.091100
N      6.897600    0.708000   -1.183200
