28

Si    -4.841700   -1.853100   -2.126700
C     -5.349400   -0.671200   -0.774200
C     -4.273000   -0.128300   -0.173400
C     -4.283800    0.807500    0.914500
C     -5.317100    1.431000    1.642200
C     -4.683500    2.234600    2.567800
O     -3.328400    2.143000    2.452600
C     -3.085300    1.267400    1.439600
C     -1.825200    0.838300    0.917600
O     -0.584300    1.206800    1.332100
C      0.304200    0.555400    0.526600
C      1.684600    0.662200    0.622600
C      2.399000   -0.082200   -0.309400
N      1.786400   -0.841900   -1.261800
C      0.431400   -0.934200   -1.319100
C     -0.357000   -0.229900   -0.413200
C     -1.737600   -0.055700   -0.144700
C     -2.945700   -0.583400   -0.726600
C     -3.049500   -1.474800   -1.733300
C      3.865500   -0.084500   -0.384400
C      4.561200   -0.163800   -1.623100
C      5.970000   -0.177700   -1.755200
C      6.835400   -0.123600   -0.655000
C      6.220200   -0.057400    0.616300
N      6.874400   -0.007200    1.787100
S      5.717000    0.056500    2.971500
N      4.335600    0.021100    2.056700
C      4.710900   -0.035700    0.765500
