25

C      4.439100    4.307100    3.368200
C      3.061400    4.360900    3.266500
N      2.333900    3.372200    2.695400
C      3.030500    2.306500    2.213900
C      2.233300    1.233200    1.588100
C      0.914500    0.984100    2.007700
C      0.138600   -0.028000    1.429800
C      0.651500   -0.827200    0.401100
C     -0.159500   -1.872500   -0.215200
C      0.148400   -3.231400   -0.144900
N     -0.572300   -4.234500   -0.700100
C     -1.696100   -3.924200   -1.389400
C     -2.101700   -2.591000   -1.532100
C     -1.324600   -1.591300   -0.943700
N     -1.923800   -0.387900   -1.246800
C     -3.063800   -0.578500   -1.988600
C     -3.975000    0.341700   -2.502000
C     -5.024900   -0.212300   -3.218300
N     -5.202500   -1.533900   -3.435500
C     -4.300400   -2.409000   -2.926100
C     -3.202800   -1.951800   -2.185100
C      1.963100   -0.587400   -0.026600
C      2.738300    0.426300    0.553900
C      4.420500    2.269100    2.335300
N      5.153400    3.259800    2.906400
