24

C     -7.313300   -0.740600   -0.346000
C     -6.721300    0.491800   -0.153700
N     -5.378500    0.652400   -0.093000
C     -4.613700   -0.467100   -0.231100
C     -3.143900   -0.268300   -0.161400
C     -2.601800    1.016300    0.037000
C     -1.218000    1.245700    0.108600
C     -0.305500    0.192700   -0.015900
C      1.162200    0.360000    0.049300
N      2.016100   -0.640200   -0.069400
C      3.318800   -0.189400    0.031500
C      4.474800   -0.976200   -0.048200
C      5.735000   -0.390700    0.070800
S      7.295700   -1.114900    0.011400
C      8.006500    0.424200    0.250800
N      7.179400    1.437600    0.372100
C      5.875600    0.983200    0.270600
C      4.718000    1.767900    0.350000
C      3.458700    1.180500    0.230800
S      1.901500    1.898500    0.289400
C     -0.833500   -1.091300   -0.213800
C     -2.218100   -1.317500   -0.284900
C     -5.239600   -1.700500   -0.424500
N     -6.588100   -1.867900   -0.486300
