26

C      7.828800   -0.188700   -0.277900
C      7.810300    0.988900    0.458900
N      6.702400    1.629200    0.897500
C      5.564300    1.002700    0.544900
N      4.311800    1.443700    0.862600
C      3.357900    0.586500    0.363200
C      1.959700    0.641000    0.447600
C      1.205600   -0.377000   -0.166000
C     -0.264900   -0.355700   -0.101400
C     -0.934400   -0.323400    1.127800
C     -2.339500   -0.301700    1.200200
C     -3.117500   -0.335300    0.025400
C     -2.447100   -0.343900   -1.214400
C     -1.041000   -0.367100   -1.266600
C     -3.214400   -0.383300   -2.512300
C     -4.667100    0.027800   -2.327800
C     -5.243600   -0.690900   -1.119400
N     -4.518800   -0.297500    0.087200
C     -5.132700   -0.652400    1.365200
C     -4.452800    0.103600    2.494600
C     -2.988400   -0.301900    2.561700
C      1.876700   -1.409700   -0.838600
C      3.276600   -1.454100   -0.914300
C      4.034600   -0.437400   -0.302900
C      5.433800   -0.172200   -0.184900
C      6.618000   -0.795200   -0.615400
