25

C     -7.106000    0.092900   -0.192800
C     -7.050700    1.174000    0.678000
N     -5.922400    1.733600    1.172200
C     -4.804400    1.128400    0.730300
N     -3.538100    1.500800    1.079600
C     -2.609700    0.690500    0.465400
C     -1.206400    0.706000    0.533400
C     -0.480800   -0.248300   -0.204400
C      0.994500   -0.285200   -0.175600
C      1.892100   -1.128800   -0.817900
C      3.218300   -0.757000   -0.466600
C      4.496500   -1.237700   -0.802200
C      5.643400   -0.632300   -0.270400
C      7.045600   -0.828300   -0.372300
C      7.631200    0.131700    0.422200
O      6.685200    0.910800    1.010700
C      5.478300    0.445600    0.589200
C      4.234900    0.946400    0.942200
C      3.111100    0.326300    0.399500
N      1.772200    0.589600    0.558100
C     -1.189700   -1.178400   -0.979700
C     -2.592300   -1.184400   -1.040000
C     -3.319400   -0.232400   -0.304100
C     -4.710400    0.046300   -0.135300
C     -5.914100   -0.495500   -0.618300
