25

C     -6.817500   -0.280600   -0.225800
C     -6.792300   -0.589100    1.128500
N     -5.681100   -0.707500    1.891200
C     -4.548100   -0.491700    1.197800
N     -3.294100   -0.551100    1.734600
C     -2.344500   -0.283400    0.774000
C     -0.943800   -0.235200    0.872400
C     -0.193700    0.066300   -0.279900
C      1.279900    0.132200   -0.242600
C      2.201400    0.409700   -1.252600
C      3.501200    0.350400   -0.706000
N      4.726000    0.540100   -1.265500
C      5.772600    0.396800   -0.407600
C      7.165200    0.510300   -0.596300
C      7.734200    0.257700    0.634000
O      6.780200   -0.004800    1.571200
C      5.578700    0.079600    0.936700
N      4.375100   -0.113500    1.515100
C      3.363100    0.036200    0.637300
N      2.031000   -0.091500    0.901100
C     -0.875000    0.307000   -1.482400
C     -2.275300    0.255900   -1.568300
C     -3.027600   -0.044900   -0.419400
C     -4.424200   -0.177200   -0.149300
C     -5.611000   -0.066700   -0.894300
