22

C     -5.902200   -0.254100    0.024300
C     -5.909800    1.123600    0.202600
N     -4.816000    1.912300    0.311500
C     -3.664500    1.220400    0.228400
N     -2.422000    1.781100    0.306300
C     -1.448800    0.814700    0.191100
C     -0.051700    0.929600    0.215900
C      0.724600   -0.235400    0.068000
C      2.196100   -0.158900    0.087800
C      2.870400    0.409400    1.187500
C      4.268800    0.501300    1.248800
C      4.966500   -0.003900    0.154000
N      6.294600   -0.096600   -0.152800
N      6.495000   -0.672800   -1.349200
N      5.302400   -0.969900   -1.851400
C      4.350200   -0.572100   -0.951000
C      2.951400   -0.655200   -0.994200
C      0.076200   -1.468800   -0.098900
C     -1.322600   -1.570600   -0.120200
C     -2.102900   -0.408200    0.027300
C     -3.507800   -0.148600    0.052700
C     -4.678100   -0.919900   -0.054300
