18

C     -4.883500   -0.021800   -0.047300
C     -4.838500    1.030900    0.858000
N     -3.715300    1.600000    1.352500
C     -2.590900    1.036600    0.873000
N     -1.328000    1.427100    1.214600
C     -0.392000    0.660900    0.557500
C      1.009200    0.708200    0.602400
C      1.732100   -0.210600   -0.177500
C      3.185800   -0.183300   -0.153500
C      4.087700    0.886200    0.059300
N      5.366500    0.501400    0.024100
N      5.289400   -0.818000   -0.209600
C      4.008800   -1.277200   -0.322500
C      1.044600   -1.134800   -0.974600
C     -0.357300   -1.168100   -1.010600
C     -1.092600   -0.255300   -0.230400
C     -2.486700   -0.014000   -0.029800
C     -3.685700   -0.567800   -0.511100
