26

C      6.321400    1.613100   -0.490900
C      6.037200    1.853600   -1.829300
N      4.881000    1.543000   -2.459100
C      3.986300    0.952700   -1.645500
N      2.746100    0.537800   -2.037800
C      2.066500   -0.018100   -0.977700
C      0.777700   -0.564700   -0.915800
C      0.326000   -1.079500    0.313500
C     -1.015000   -1.645900    0.423800
C     -1.266900   -3.002700    0.624700
N     -2.492300   -3.569700    0.728800
C     -3.587100   -2.777300    0.634000
C     -3.455200   -1.396500    0.438300
C     -2.171300   -0.857700    0.338900
N     -2.317800    0.501800    0.170800
C     -3.645200    0.853000    0.139500
C     -4.249500    2.098600   -0.016200
C     -5.635700    2.082800    0.004800
N     -6.395600    0.976800    0.161700
C     -5.783000   -0.223600    0.313300
C     -4.385200   -0.317200    0.305200
C      1.172200   -1.037100    1.430000
C      2.458800   -0.485500    1.353900
C      2.917500    0.035800    0.128700
C      4.133400    0.654000   -0.296900
C      5.354900    0.998900    0.307100
