25

C     -6.831100    0.013900    0.086700
C     -6.732200    0.221300   -1.283400
N     -5.580700    0.323800   -1.985600
C     -4.485700    0.202800   -1.212400
N     -3.203300    0.268800   -1.676800
C     -2.308800    0.108900   -0.643200
C     -0.906700    0.105400   -0.651700
C     -0.213800   -0.081100    0.561900
C      1.267300   -0.080900    0.526800
N      1.970600    0.084500   -0.578900
C      3.326000    0.039400   -0.312400
C      4.358100    0.178000   -1.248900
C      5.690900    0.111900   -0.843300
S      7.133100    0.248100   -1.773600
C      8.058500    0.028900   -0.349900
N      7.384800   -0.138000    0.765400
C      6.027600   -0.092400    0.495300
C      4.993600   -0.230700    1.430000
C      3.661500   -0.164300    1.022400
S      2.222000   -0.299500    1.945800
C     -0.958700   -0.257000    1.739000
C     -2.364000   -0.251500    1.734600
C     -3.054800   -0.065400    0.522900
C     -4.435400   -0.005600    0.160400
C     -5.662000   -0.104400    0.839800
