25

C      6.558400   -0.682000   -0.150800
C      6.166700    0.612500   -0.485800
N      4.892400    1.064200   -0.534900
C      3.985600    0.118800   -0.219000
C      4.269400   -1.198700    0.128900
C      5.592000   -1.637500    0.171400
N      3.077300   -1.843900    0.378800
C      2.055700   -0.945200    0.190400
C      0.642300   -0.827000    0.242300
C     -0.423000   -1.684300    0.547900
C     -1.734200   -1.184800    0.485900
C     -2.017700    0.143100    0.120200
C     -0.931300    0.997100   -0.172400
C      0.379500    0.500400   -0.111300
N      1.573800    1.145700   -0.358500
C      2.587300    0.251000   -0.172100
C     -3.389600    0.669500    0.057000
N     -3.582400    2.007100    0.344700
C     -4.821400    2.587300    0.311600
C     -6.025900    1.975800   -0.007000
C     -5.892000    0.613100   -0.326500
N     -6.903800   -0.196800   -0.677700
S     -6.236400   -1.685700   -0.970100
N     -4.640300   -1.375400   -0.654600
C     -4.549300   -0.078300   -0.302000
