23

C      7.003700    0.212500    0.223700
C      6.433000    0.511100    1.443400
N      5.095700    0.526400    1.628700
C      4.337000    0.233500    0.552700
C      2.951100    0.231000    0.669000
C      2.107400   -0.066000   -0.414200
C      0.643600   -0.063100   -0.261600
C      0.019000   -0.802700    0.750900
C     -1.378400   -0.794300    0.911200
C     -2.197100   -0.059800    0.033300
C     -1.574600    0.673900   -0.993500
C     -0.173900    0.679000   -1.123700
C     -2.400900    1.496800   -1.949100
C     -3.824200    0.965600   -2.040100
C     -4.405000    0.817500   -0.642600
N     -3.577700   -0.059300    0.175900
C     -4.221200   -0.925400    1.155300
C     -3.362700   -1.072100    2.401800
C     -1.992400   -1.612300    2.018700
C      2.707300   -0.366000   -1.642100
C      4.098800   -0.367000   -1.773600
C      4.924600   -0.072700   -0.699100
N      6.262500   -0.083900   -0.865200
