22

C      6.366800    0.217400    0.468100
C      5.904100    1.418200   -0.028500
N      4.588700    1.663300   -0.212400
C      3.741400    0.667500    0.116200
C      2.372700    0.852900   -0.048300
C      1.441900   -0.144300    0.275200
C      0.010500    0.083900    0.090000
C     -0.748200    1.144800   -0.372300
C     -2.107800    0.743100   -0.308700
C     -3.347800    1.317800   -0.615200
C     -4.496800    0.563900   -0.400800
O     -5.774600    0.963900   -0.642200
C     -6.583000   -0.072400   -0.295400
C     -5.840600   -1.135700    0.166800
C     -4.481400   -0.732900    0.102700
C     -3.240700   -1.306400    0.408800
C     -2.092400   -0.551600    0.194000
O     -0.816300   -0.951100    0.435100
C      1.928200   -1.355100    0.777300
C      3.301500   -1.554500    0.947400
C      4.217800   -0.565000    0.626000
N      5.534600   -0.791700    0.802800
