22

C      6.351400   -0.014800   -0.080300
C      5.853400    0.648100   -1.184400
N      4.535200    0.807400   -1.425500
C      3.671200    0.284800   -0.530000
C      2.305800    0.422700   -0.734200
C      1.373200   -0.102200    0.166600
C     -0.059900    0.044300   -0.050800
C     -0.834100    0.637500   -1.032000
C     -2.191200    0.437100   -0.668000
C     -3.441800    0.770500   -1.203200
C     -4.582900    0.374000   -0.513800
O     -5.869000    0.612200   -0.888300
C     -6.664800    0.055800    0.062900
C     -5.906000   -0.538400    1.046100
C     -4.549500   -0.337600    0.681300
C     -3.298200   -0.670400    1.215500
C     -2.158000   -0.273300    0.525300
O     -0.873200   -0.511200    0.899200
C      1.888800   -0.766700    1.273100
N      3.211000   -0.930800    1.522200
C      4.074500   -0.410000    0.629600
C      5.439400   -0.544900    0.829000
