22

C      6.142600   -0.147600   -0.235800
C      5.587500    0.329600   -1.404800
N      4.252300    0.444800   -1.574200
C      3.481100    0.066900   -0.535000
C      2.096100    0.160000   -0.643400
C      1.236100   -0.215900    0.399300
C     -0.228100   -0.115000    0.278300
C     -1.235600   -0.434200    1.188500
C     -2.484800   -0.155700    0.593600
N     -3.755600   -0.290700    1.057600
C     -4.725400    0.087800    0.181000
C     -6.131700    0.099800    0.282200
C     -6.592200    0.587900   -0.922200
O     -5.558300    0.878400   -1.761400
C     -4.414600    0.573400   -1.089000
N     -3.163000    0.716500   -1.571900
C     -2.229400    0.332800   -0.678600
N     -0.876800    0.352400   -0.855200
C      1.819300   -0.697100    1.575600
C      3.209400   -0.795900    1.697800
C      4.052000   -0.422400    0.663400
N      5.386900   -0.530800    0.815300
