22

C     -6.100800    0.149800    0.627700
C     -5.569900    1.225700   -0.055400
N     -4.253000    1.366300   -0.314000
C     -3.423900    0.395500    0.124800
C     -2.059700    0.493000   -0.115800
C     -1.158000   -0.486600    0.318000
C      0.284100   -0.363700    0.052400
C      0.997200    0.634700   -0.611300
C      2.366300    0.291700   -0.602500
N      3.458800    0.922400   -1.109000
C      4.638000    0.275400   -0.901700
C      5.962600    0.595400   -1.263300
C      6.743700   -0.435000   -0.784200
O      5.984300   -1.371800   -0.149100
C      4.695400   -0.939800   -0.219400
N      3.626400   -1.585000    0.292200
C      2.477900   -0.916500    0.068400
N      1.226400   -1.298400    0.455300
C     -1.714300   -1.561700    1.004100
N     -3.034500   -1.710000    1.267600
C     -3.863000   -0.742600    0.830700
C     -5.224900   -0.838500    1.070000
