19

C      5.170200   -0.245800   -0.242200
C      4.561500   -1.007500   -1.217900
N      3.218700   -1.097000   -1.328500
C      2.494500   -0.400400   -0.429500
C      1.105300   -0.446600   -0.482800
C      0.295900    0.258100    0.423500
C     -1.173200    0.190600    0.343100
C     -1.944300    1.368800    0.271000
C     -3.345000    1.350600    0.193000
C     -3.944400    0.093300    0.191000
N     -5.242100   -0.329500    0.128100
N     -5.335900   -1.668700    0.158500
N     -4.101900   -2.151500    0.239900
C     -3.231700   -1.094300    0.260000
C     -1.832100   -1.056000    0.336200
C      0.933600    1.024500    1.405200
C      2.328700    1.079300    1.470600
C      3.121000    0.381500    0.571300
N      4.463300    0.460200    0.666000
