23

C     -5.104400    1.142100   -0.496700
C     -4.722200    0.313000   -1.532400
N     -3.551100   -0.356900   -1.556000
C     -2.721700   -0.198300   -0.503500
C     -1.505500   -0.864000   -0.479900
C     -0.615300   -0.722800    0.590600
C      0.665500   -1.419200    0.615200
C      0.745700   -2.792900    0.928000
C      1.969800   -3.463200    0.965900
C      3.162000   -2.792100    0.692500
C      3.062700   -1.438000    0.377800
O      4.119500   -0.637900    0.082600
C      3.627100    0.601900   -0.178100
N      4.416400    1.640100   -0.511300
C      3.729600    2.779400   -0.737300
C      2.352000    2.924500   -0.650900
C      1.574200    1.820300   -0.300700
C      2.238000    0.605400   -0.049300
C      1.866900   -0.725900    0.323900
C     -1.015700    0.108600    1.630400
N     -2.186200    0.785400    1.655700
C     -3.015100    0.624700    0.604800
C     -4.230300    1.290300    0.577600
