15

C      4.061900   -0.146200    0.688400
C      3.602100   -1.310800    0.106400
N      2.311100   -1.516700   -0.228000
C      1.435300   -0.521500    0.026300
C      0.096700   -0.684400   -0.300600
C     -0.843100    0.321400   -0.053300
C     -2.246800    0.169600   -0.391800
C     -3.258800    1.136800   -0.605300
N     -4.444900    0.592800   -0.887700
N     -4.201600   -0.726100   -0.858400
C     -2.903500   -1.031600   -0.564100
C     -0.367100    1.488300    0.531900
N      0.927000    1.700700    0.869400
C      1.800800    0.706900    0.616700
C      3.138900    0.865800    0.940600
