23

C      6.141900   -0.111300    1.055400
C      5.720000    1.175300    1.325900
N      4.470400    1.617300    1.072700
C      3.600000    0.743600    0.525700
C      2.302600    1.149600    0.246600
C      1.361000    0.280000   -0.321100
C     -0.012000    0.706000   -0.615900
C     -0.283300    1.870000   -1.334100
N     -1.505000    2.348900   -1.658700
C     -2.529400    1.589600   -1.219800
S     -4.137400    2.041000   -1.536600
C     -4.739500    0.679600   -0.714600
N     -6.069800    0.469900   -0.617600
C     -6.405600   -0.644600    0.060600
C     -5.513300   -1.535300    0.630200
C     -4.148800   -1.283400    0.507200
C     -3.733100   -0.128900   -0.193600
C     -2.429200    0.408000   -0.494300
C     -1.121200   -0.038500   -0.189000
C      1.805900   -1.011500   -0.588200
N      3.056100   -1.462100   -0.334200
C      3.927700   -0.591400    0.211100
C      5.224000   -0.994200    0.491500
