22

C      6.091000   -0.191000   -0.170400
C      5.615700   -1.016400    0.827200
N      4.296200   -1.157000    1.077700
C      3.457500   -0.445400    0.298800
C      2.085600   -0.541600    0.500700
C      1.167400    0.175700   -0.279900
C     -0.263500    0.035500   -0.022600
N     -0.874200   -0.706200    0.885900
C     -2.204400   -0.454400    0.677500
C     -3.351800   -0.934200    1.314100
C     -4.577900   -0.473500    0.854200
O     -5.822900   -0.793000    1.309400
C     -6.651600   -0.063000    0.508200
N     -6.056400    0.680200   -0.401000
C     -4.725300    0.428300   -0.192500
C     -3.577300    0.907500   -0.828400
C     -2.351600    0.446300   -0.367900
O     -1.108400    0.766200   -0.823500
C      1.664000    1.007900   -1.286900
C      3.041800    1.112800   -1.499400
C      3.947700    0.401900   -0.725500
N      5.268000    0.530100   -0.961600
