19

C      5.616200    0.089200    0.375500
C      5.171900   -1.129900   -0.096300
N      3.868700   -1.424300   -0.287200
C      2.964300   -0.466000    0.003000
C      1.611900   -0.723400   -0.177600
C      0.635100    0.238300    0.109200
C     -0.812800    0.035600   -0.057700
N     -1.710700    0.960400    0.220800
C     -2.989700    0.494200   -0.031000
C     -4.185500    1.216900    0.154900
C     -5.413700    0.617100   -0.142200
C     -5.462500   -0.688600   -0.620100
C     -4.289800   -1.425800   -0.812700
C     -3.062600   -0.812500   -0.510700
S     -1.470800   -1.446100   -0.638700
C      1.101800    1.460400    0.583600
N      2.408500    1.765500    0.778600
C      3.312100    0.811100    0.489700
C      4.663500    1.061900    0.667900
