22

C     -6.066200   -0.136600    0.146600
C     -5.517300   -1.239300   -0.474500
N     -4.182400   -1.407900   -0.598300
C     -3.406500   -0.436000   -0.079900
C     -2.023400   -0.552000   -0.175800
C     -1.162000    0.423500    0.342600
C      0.300400    0.322600    0.253200
N      1.158200    1.217000    0.726900
C      2.402200    0.734900    0.432300
N      3.599500    1.301700    0.717400
C      4.671200    0.585900    0.297700
N      5.995900    0.899800    0.440400
C      6.640300   -0.100300   -0.126300
N      5.787500   -1.048200   -0.629700
C      4.519200   -0.627600   -0.368300
N      3.348300   -1.226000   -0.671500
C      2.312600   -0.479000   -0.235500
N      0.979000   -0.724900   -0.340500
C     -1.732900    1.535800    0.969500
C     -3.120900    1.663600    1.072000
C     -3.970100    0.696400    0.557900
N     -5.304400    0.846600    0.671500
