22

C     -6.316400    0.659400   -0.095400
C     -5.571300    1.815600   -0.158400
N     -4.223600    1.801100   -0.126600
C     -3.628500    0.603900   -0.030100
N     -2.290900    0.567000    0.003000
C     -1.699900   -0.644900    0.100400
C     -0.243200   -0.666300    0.135300
C      0.708600   -1.668100    0.226400
C      1.980200   -1.035900    0.211700
C      3.316700   -1.450500    0.270900
C      4.312200   -0.479800    0.226500
O      5.653300   -0.704800    0.272700
C      6.258100    0.510600    0.202400
C      5.322000    1.516000    0.111400
C      4.052100    0.883200    0.126100
C      2.715200    1.296100    0.067000
C      1.720900    0.324900    0.111500
O      0.382800    0.549500    0.065400
C     -2.460000   -1.800000    0.163000
N     -3.812300   -1.792300    0.131600
C     -4.404400   -0.595700    0.035200
N     -5.743200   -0.557100    0.002000
