22

C      6.103700    0.272600    0.611500
C      5.430200    0.315800    1.811900
N      4.084200    0.265700    1.880100
C      3.419200    0.171200    0.721500
N      2.082500    0.120500    0.771500
C      1.421200    0.025000   -0.406100
C     -0.034900   -0.031200   -0.369100
N     -0.888000   -0.124500   -1.378700
C     -2.116600   -0.138200   -0.769400
C     -3.410500   -0.220600   -1.290100
C     -4.464800   -0.210100   -0.386900
O     -5.800800   -0.279200   -0.651200
C     -6.372800   -0.229700    0.586600
N     -5.535200   -0.136800    1.598000
C     -4.306600   -0.123100    0.990700
C     -3.012300   -0.040700    1.510200
C     -1.958600   -0.051300    0.606500
O     -0.625300    0.017700    0.871400
C      2.104000   -0.017900   -1.608000
N      3.454400    0.032000   -1.683400
C      4.120100    0.126400   -0.525500
N      5.457900    0.177600   -0.568300
