23

C      6.619800   -0.875200    0.590800
C      7.004000    0.174700   -0.217800
N      6.138400    0.998600   -0.847600
C      4.827400    0.802100   -0.691200
N      3.985700    1.624000   -1.317600
C      2.651600    1.434200   -1.166000
C      2.068300    0.435900   -0.394500
C      0.612400    0.292100   -0.271200
C     -0.018300   -0.934000   -0.519300
C     -1.410900   -1.083200   -0.389100
C     -2.219400    0.011300   -0.030500
C     -1.591300    1.248200    0.205400
C     -0.194500    1.375800    0.099200
C     -2.407000    2.450000    0.610100
C     -3.847700    2.316300    0.138200
C     -4.409600    0.976000    0.585400
N     -3.595300   -0.125500    0.087700
C     -4.251200   -1.366700   -0.302900
C     -3.377800   -2.568500    0.021200
C     -2.032700   -2.426500   -0.676400
C      2.957100   -0.420300    0.256200
C      4.344000   -0.246300    0.115500
C      5.261000   -1.089100    0.760500
