22

C      6.095100   -0.493400   -0.338600
C      6.310700    0.210600    0.828200
N      5.322400    0.713200    1.599400
C      4.054000    0.528700    1.228300
N      3.089600    1.030200    1.998900
C      1.795000    0.849200    1.632000
C      1.377800    0.170100    0.495300
C     -0.029900    0.010300    0.157000
C     -0.713700   -0.599200   -0.879900
C     -2.098400   -0.404600   -0.635400
C     -3.296700   -0.752800   -1.271400
C     -4.494800   -0.356800   -0.686400
O     -5.742700   -0.608300   -1.166600
C     -6.620300   -0.047200   -0.293300
C     -5.951900    0.563200    0.744200
C     -4.568000    0.368000    0.498900
C     -3.369000    0.715700    1.134000
C     -2.171600    0.319100    0.548000
O     -0.925000    0.570100    1.027200
C      2.390100   -0.352200   -0.306900
C      3.738700   -0.178200    0.051300
C      4.781500   -0.691300   -0.734300
