19

C     -5.459600    0.038700    0.842600
C     -5.697600    0.149600   -0.511700
N     -4.724000    0.206700   -1.446200
C     -3.449100    0.154100   -1.055300
N     -2.498900    0.211300   -1.985900
C     -1.197600    0.158700   -1.600300
C     -0.744900    0.047600   -0.289500
C      0.700500   -0.001800    0.024500
C      1.782600    0.047900   -0.839300
C      3.061300   -0.025200   -0.189400
C      4.370800   -0.005000   -0.727200
C      5.482700   -0.090500    0.116000
C      5.313000   -0.196000    1.489400
C      4.032400   -0.218100    2.046400
C      2.916100   -0.131600    1.191700
S      1.260900   -0.139000    1.642900
C     -1.753200   -0.011300    0.675400
C     -3.110500    0.041000    0.305100
C     -4.138400   -0.016600    1.258200
