24

Si    -6.490500    0.887500   -1.277800
C     -6.465100   -0.114400    0.302400
C     -5.200000   -0.373600    0.685300
C     -4.844400   -1.137200    1.882700
C     -3.549600   -1.353500    2.197300
C     -2.583300   -0.805700    1.313100
N     -1.240000   -0.942500    1.501500
C     -0.565600   -0.303900    0.479900
C      0.787200   -0.153200    0.214100
Si     2.274800   -0.728800    1.092000
C      3.372600    0.110000   -0.254600
C      2.573600    0.703100   -1.174100
C      1.127200    0.567000   -0.929400
N      0.250800    1.118700   -1.782000
C     -1.073900    0.968000   -1.516800
C     -1.522600    0.258400   -0.387800
C     -2.790700   -0.071200    0.158500
C     -4.146900    0.186200   -0.219600
C     -4.619100    0.865100   -1.281100
C      4.819200    0.060100   -0.205400
C      5.630400   -0.530500    0.703700
C      7.063700   -0.406000    0.480400
C      7.423500    0.287200   -0.612400
Si     5.923900    0.903400   -1.547900
