23

C      4.799500    1.649000   -1.071100
C      5.156400    1.524900    0.256000
N      4.411100    0.882100    1.181400
C      3.256800    0.325200    0.810000
N      2.531900   -0.304400    1.735800
C      1.356600   -0.872600    1.373000
C      0.829800   -0.845500    0.089200
C     -0.446900   -1.470400   -0.233100
C     -0.495100   -2.775500   -0.761700
C     -1.707100   -3.384000   -1.073600
C     -2.913500   -2.714700   -0.872200
C     -2.861500   -1.416900   -0.349600
N     -3.890600   -0.552100   -0.061500
C     -3.412900    0.633900    0.434700
C     -4.093900    1.772500    0.846200
N     -3.392000    2.831000    1.305200
C     -2.045600    2.749200    1.352900
C     -1.305800    1.644600    0.956600
C     -2.022800    0.535600    0.475500
C     -1.666100   -0.769600   -0.022300
C      1.591000   -0.191000   -0.877000
C      2.812800    0.403200   -0.525100
C      3.602100    1.075900   -1.469000
