23

C      4.969000   -0.696900   -0.938000
C      5.032400   -1.436000    0.225400
N      4.044600   -1.480900    1.146000
C      2.933300   -0.772700    0.937900
N      1.967600   -0.827100    1.856200
C      0.833200   -0.114200    1.658100
C      0.581200    0.676700    0.545100
C     -0.670400    1.405300    0.383300
C     -0.748100    2.792500    0.630300
C     -1.944900    3.495100    0.478900
C     -3.110600    2.844500    0.073100
C     -3.013600    1.475800   -0.171200
O     -4.046000    0.691800   -0.575500
C     -3.564400   -0.571800   -0.712700
N     -4.335300   -1.602600   -1.105900
C     -3.664100   -2.771000   -1.180200
C     -2.317400   -2.949800   -0.896400
C     -1.557000   -1.851100   -0.494500
C     -2.206500   -0.607000   -0.394300
C     -1.844900    0.730700   -0.034700
C      1.593500    0.735600   -0.410600
C      2.780600    0.009700   -0.223900
C      3.818100    0.040700   -1.166900
