15

C      3.840700    0.746300   -0.672200
C      4.127100    0.024100    0.467900
N      3.189900   -0.553000    1.251100
C      1.903600   -0.428400    0.919300
N      0.990500   -1.003700    1.701800
C     -0.321000   -0.885600    1.375800
C     -0.803700   -0.202600    0.268700
C     -2.219500   -0.106600   -0.032000
C     -2.941100    0.841100   -0.796600
N     -4.248400    0.575600   -0.852500
N     -4.373800   -0.544100   -0.124300
C     -3.189500   -0.993800    0.387100
C      0.151900    0.400200   -0.545400
C      1.517100    0.292000   -0.228200
C      2.507700    0.882200   -1.026800
