22

C      5.438100    1.152300   -0.280200
C      6.225300    0.039900   -0.041500
N      5.766300   -1.199500    0.219700
C      4.419800   -1.299100    0.235800
S      3.667900   -2.791800    0.549500
C      2.120100   -2.105700    0.398400
N      1.015900   -2.863400    0.554900
C     -0.144900   -2.182900    0.406300
C     -0.286400   -0.826600    0.118200
C     -1.596800   -0.170800   -0.025600
C     -1.916700    1.151000   -0.307000
C     -3.331100    1.291600   -0.342100
C     -4.208000    2.358400   -0.571500
N     -5.550000    2.165400   -0.535600
C     -6.023500    0.926700   -0.274800
C     -5.238800   -0.191700   -0.034800
C     -3.864900    0.035500   -0.077800
N     -2.807700   -0.824200    0.108300
C      0.901100   -0.099100   -0.031600
C      2.152700   -0.746900    0.110300
C      3.509800   -0.269200    0.014100
C      4.053000    1.007400   -0.254600
