22

C     -4.846500    2.110000    0.041700
C     -5.817500    1.135800    0.190900
N     -5.584800   -0.185300    0.315300
C     -4.277800   -0.522800    0.282900
S     -3.802200   -2.149400    0.423200
C     -2.157700   -1.736900    0.297000
N     -1.206300   -2.692100    0.342500
C      0.055400   -2.219200    0.230100
C      0.430400   -0.885200    0.079900
C      1.840200   -0.483900   -0.031800
C      2.385400    0.474200    0.847200
C      3.724900    0.885600    0.777900
C      4.499400    0.293600   -0.217000
N      5.806400    0.424400   -0.594100
N      6.109800   -0.368500   -1.634500
N      5.009800   -1.037000   -1.959100
C      4.010700   -0.651500   -1.106300
C      2.669400   -1.051800   -1.020900
C     -0.605700    0.058100    0.040800
C     -1.949900   -0.369800    0.151100
C     -3.200600    0.347300    0.139900
C     -3.509500    1.720500    0.014600
