18

C     -4.036900    1.139800    0.419400
C     -4.736500    0.036900   -0.036800
N     -4.183300   -1.103100   -0.493900
C     -2.833400   -1.108200   -0.480500
S     -1.969800   -2.469200   -1.022200
C     -0.478600   -1.719800   -0.700000
N      0.680200   -2.365800   -0.944700
C      1.786900   -1.651100   -0.642300
C      1.814400   -0.360800   -0.122100
C      3.072100    0.298400    0.168900
C      4.350900   -0.222200    0.475700
N      5.258700    0.737600    0.667800
O      4.575600    1.926900    0.480900
C      3.279500    1.658400    0.183200
C      0.582400    0.260300    0.113400
C     -0.614800   -0.435800   -0.183500
C     -2.004900   -0.074800   -0.051600
C     -2.644600    1.094900    0.416700
