26

S     -0.262800    1.533700    1.540400
C     -0.691900    0.353600    0.346600
C      0.494200   -0.182800   -0.177400
C      1.680600    0.362400    0.387500
C      1.424200    1.328500    1.356500
C      2.420000    2.045600    2.091800
C      3.788700    1.837400    1.900700
C      4.017000    0.877600    0.937700
C      5.284100    0.493300    0.568000
N      5.149300   -0.470300   -0.403800
C      3.811100   -0.703800   -0.656900
C      3.101700    0.123500    0.166300
C      0.351800   -1.198700   -1.202100
N      1.371400   -1.797000   -1.790900
S      0.684200   -2.856300   -2.866600
N     -0.921100   -2.549200   -2.578900
C     -0.985500   -1.596500   -1.620600
C     -2.182900   -1.052200   -1.088700
C     -3.460300   -1.521400   -1.578200
C     -4.696300   -1.047700   -1.118000
C     -4.538600   -0.075400   -0.137100
C     -5.639100    0.511000    0.438500
S     -5.182400    1.668000    1.609400
C     -3.507800    1.376700    1.338600
C     -3.267100    0.418900    0.377600
C     -2.000200   -0.047500   -0.074800
