28

Si    -1.492600   -0.943100    0.967800
C     -2.462100    0.180400   -0.191300
C     -1.625900    0.885800   -0.986600
C     -0.173700    0.634500   -0.785000
C      0.081100   -0.317600    0.223900
C      1.386500   -0.694300    0.567100
S      1.877700   -1.831000    1.763100
C      3.533200   -1.605100    1.444100
C      4.623100   -2.233500    2.067300
C      5.895900   -1.886700    1.636500
C      6.017600   -0.952500    0.629000
N      4.992600   -0.335900    0.015300
C      3.733600   -0.669600    0.431600
C      2.485500   -0.123400   -0.096200
C      2.218400    0.856800   -1.134900
C      3.287600    1.464300   -1.836200
C      3.067200    2.409200   -2.839100
C      1.772500    2.774200   -3.170200
C      0.696700    2.194200   -2.498100
C      0.886800    1.233500   -1.476800
C     -3.887000    0.255700   -0.205300
S     -4.739800    1.336400   -1.325900
C     -6.312800    0.898300   -0.781600
C     -6.162900   -0.013300    0.190300
O     -7.174500   -0.609400    0.878000
C     -6.437900   -1.420800    1.714900
C     -5.052900   -1.316600    1.538000
C     -4.871100   -0.365300    0.507700
