18

C      3.659900    0.606500    1.696200
C      4.523600   -0.118400    0.894700
N      4.166100   -0.838800   -0.186200
C      2.843700   -0.811100   -0.457300
S      2.216400   -1.665600   -1.787000
C      0.633600   -1.149400   -1.442900
N     -0.398700   -1.537100   -2.221200
C     -1.600400   -1.051300   -1.830000
C     -1.829600   -0.223700   -0.737800
C     -3.164500    0.243400   -0.403600
N     -3.405900    1.065700    0.678200
C     -4.701800    1.237700    0.613000
O     -5.290300    0.589900   -0.421500
N     -4.269100   -0.073200   -1.100500
C     -0.722600    0.147000    0.034400
C      0.561300   -0.327800   -0.322500
C      1.865200   -0.127900    0.259400
C      2.302800    0.609400    1.382600
