19

C     -4.893100   -0.715500   -0.495300
C     -5.475200    0.537800   -0.420100
N     -4.785400    1.667200   -0.161200
C     -3.449900    1.531700    0.030000
C     -2.753700    0.322200   -0.018200
C     -3.517900   -0.819700   -0.291500
C     -1.302100    0.250200    0.205200
C     -0.719800    0.820300    1.340000
C      0.662200    0.755600    1.561600
C      1.515200    0.106300    0.634400
C      0.926900   -0.460000   -0.494900
C     -0.465200   -0.397200   -0.719700
S      2.095800   -1.200000   -1.509000
C      3.396500   -0.786700   -0.471400
C      4.751800   -1.083200   -0.662500
C      5.615300   -0.640800    0.320600
N      5.232800    0.038300    1.416600
C      3.920000    0.318200    1.587800
C      2.953800   -0.084800    0.649200
