33

C      7.557800   -0.367000   -0.113200
C      7.961000    0.159400   -1.326900
N      7.103500    0.602600   -2.268200
C      5.782800    0.507100   -1.980000
C      5.255800   -0.000500   -0.789900
C      6.191400   -0.443300    0.154200
C      3.815400   -0.044300   -0.546200
C      2.947900    1.036500   -0.770100
N      1.591800    1.091200   -0.578100
C      0.915000    0.003900   -0.101300
C     -0.511500    0.116500    0.108800
S     -1.530600    0.530900   -1.214300
C     -2.959100    0.442300   -0.264000
C     -4.246800    0.685500   -0.889800
C     -4.693600    1.970500   -1.264900
C     -5.956300    2.203900   -1.858300
C     -6.879000    1.177600   -2.126600
C     -6.482000   -0.135300   -1.772500
N     -7.213700   -1.246300   -1.949300
S     -6.296800   -2.506100   -1.375600
N     -4.928100   -1.705000   -0.891800
C     -5.134500   -0.398500   -1.139400
C     -2.663000    0.131900    1.043600
N     -3.604200    0.033000    2.028000
C     -3.029100   -0.282600    3.219200
C     -1.657400   -0.464000    3.429500
N     -0.695300   -0.352200    2.473800
C     -1.246500   -0.056900    1.259200
C      1.638000   -1.183700    0.160900
N      1.162700   -2.370300    0.582300
S      2.457800   -3.390200    0.713000
N      3.684200   -2.393200    0.219500
C      3.134600   -1.198100   -0.067600
