18

C     -5.133200    0.239600   -0.775600
C     -5.628500   -0.351400    0.365700
N     -4.820800   -0.815200    1.331700
N     -3.458800   -0.700500    1.184500
C     -2.911400   -0.128500    0.083600
C     -1.428400   -0.066300    0.047600
C     -0.706600    0.493600   -1.018900
C      0.701100    0.539200   -1.026800
C      1.467800    0.027300    0.032100
C      2.951900    0.059300    0.055700
C      3.750400    0.594500   -0.957400
N      5.110100    0.617700   -0.923500
C      5.665200    0.077100    0.179400
C      4.900800   -0.459000    1.196500
N      3.548000   -0.478800    1.156300
C      0.744300   -0.532500    1.098300
C     -0.659300   -0.578100    1.106200
C     -3.751200    0.352300   -0.917800
