16

C      4.202300   -0.686100   -0.117700
C      4.542900    0.598500    0.244000
N      3.617200    1.553600    0.421300
N      2.289400    1.248600    0.238400
C      1.892600    0.002800   -0.117600
C      0.430300   -0.194100   -0.282800
C     -0.140600   -1.422600   -0.647500
C     -1.526600   -1.566500   -0.792900
C     -2.391000   -0.505100   -0.583400
N     -3.718300   -0.687100   -0.734200
C     -4.498400    0.392500   -0.513400
C     -3.974700    1.616400   -0.153500
N     -2.648100    1.813400    0.001100
C     -1.850500    0.747300   -0.214800
C     -0.470100    0.873100   -0.074600
C      2.853900   -0.987900   -0.301400
