16

C     -4.091700   -0.838400   -0.319700
C     -4.750300    0.298000    0.095500
N     -4.088900    1.382100    0.530700
N     -2.716100    1.365300    0.566000
C     -2.013500    0.276300    0.170200
C     -0.543600    0.389400    0.258200
C      0.068400    1.554500    0.723000
N      1.407400    1.744500    0.836400
C      2.207500    0.728100    0.471400
C      3.584000    0.860900    0.564000
C      4.429500   -0.180700    0.190700
C      3.853000   -1.346400   -0.273200
N      2.519600   -1.525700   -0.382400
C      1.722000   -0.501000   -0.014100
C      0.342400   -0.637300   -0.108200
C     -2.698800   -0.848400   -0.281300
