16

C     -4.017800   -0.918000    0.292200
C     -4.709200    0.271300    0.362900
N     -4.080000    1.456600    0.384100
N     -2.707800    1.493100    0.334100
C     -1.973900    0.356700    0.263800
C     -0.508500    0.535800    0.215800
C      0.071000    1.803500    0.241900
N      1.403700    2.068800    0.202100
C      2.262200    1.055400    0.131800
N      3.568200    1.328500    0.093200
C      4.449400    0.307900    0.021800
C      4.084800   -1.021800   -0.014700
C      2.730700   -1.316100    0.024800
C      1.796900   -0.271000    0.099200
C      0.410300   -0.516900    0.141700
C     -2.625700   -0.873500    0.241800
