15

C      4.104600   -0.217500    0.725500
C      4.567300    0.021700   -0.553300
N      3.737300    0.238500   -1.592100
N      2.382800    0.224100   -1.386900
C      1.888200   -0.006700   -0.148100
C      0.437700   -0.008800    0.003000
N     -0.283600   -0.207400    1.097400
C     -1.579200   -0.097900    0.658100
C     -2.797000   -0.207600    1.341500
C     -3.983200   -0.043400    0.609100
C     -3.954700    0.222600   -0.766300
C     -2.744800    0.334800   -1.462400
C     -1.595200    0.165800   -0.701100
O     -0.303600    0.224800   -1.130700
C      2.730000   -0.232000    0.933100
