11

C      2.355300    0.744400    0.044100
C      2.815400   -0.506100   -0.315900
N      1.984400   -1.542100   -0.535600
N      0.631200   -1.362600   -0.400700
C      0.135600   -0.152400   -0.049000
C     -1.315500   -0.037000    0.075400
N     -2.177200   -1.095300   -0.148300
C     -3.348700   -0.558500    0.069300
O     -3.296700    0.751200    0.411700
N     -1.947700    1.103600    0.417500
C      0.982700    0.926100    0.181000
