21

C     -5.148700   -0.429300    1.331600
C     -5.181300    0.340500    0.195500
O     -3.925200    0.542900   -0.274000
C     -3.057500   -0.100500    0.561900
C     -3.781800   -0.714400    1.569400
C     -1.637700   -0.023300    0.255800
C     -0.654500   -0.659000    1.064800
C      0.729500   -0.575600    0.754200
N      1.838900   -1.100300    1.381600
C      2.998400   -0.752900    0.710200
C      4.326700   -1.065800    0.994400
C      5.256000   -0.549900    0.104400
N      4.958900    0.205700   -0.974900
C      3.659600    0.499300   -1.234200
C      2.642400    0.027500   -0.397700
C      1.246100    0.109700   -0.330800
C      0.300800    0.759800   -1.166300
C      0.468400    1.503400   -2.290500
O     -0.774900    1.898800   -2.708400
C     -1.690900    1.385100   -1.823400
C     -1.066700    0.658500   -0.831400
