27

C      5.947100    2.330100    0.013300
C      6.428300    1.045400    0.035600
O      5.404700    0.157200    0.044600
C      4.228700    0.864400    0.028100
C      4.534800    2.216300    0.008500
C      2.953200    0.215000    0.032200
C      2.673600   -1.139000    0.052000
C      1.283800   -1.217700    0.046700
C      0.448500   -2.360900    0.060600
C      0.808300   -3.673500    0.082800
N     -0.386100   -4.354800    0.087800
C     -1.450800   -3.462300    0.068800
C     -0.948200   -2.175700    0.051100
C     -1.642300   -0.951100    0.028700
C     -3.055000   -0.777800    0.019300
N     -4.128100   -1.646800    0.027800
C     -5.325100   -0.959200    0.011400
C     -5.054900    0.392000   -0.008400
C     -3.664300    0.467900   -0.003000
C     -2.827900    1.611200   -0.016800
C     -3.186800    2.924200   -0.039000
N     -1.992100    3.604800   -0.044000
C     -0.927700    2.711900   -0.025000
C     -1.431200    1.425500   -0.007300
C     -0.737600    0.200700    0.015000
C      0.674700    0.026600    0.024400
N      1.749000    0.894200    0.015900
