24

C      6.109600   -1.085400   -0.000900
C      5.430000   -2.189400   -0.452100
O      4.093700   -1.956000   -0.453400
C      3.892100   -0.678400    0.004300
C      5.122400   -0.113500    0.292800
C      2.585700   -0.113200    0.127200
C      2.178900    1.142300    0.563300
C      0.788000    1.128200    0.467200
C     -0.188500    2.116000    0.767500
N      0.148300    3.314700    1.231200
S     -1.345100    4.083000    1.416700
N     -2.398900    2.866400    0.899600
C     -1.585800    1.862500    0.582800
C     -2.079400    0.599500    0.085100
C     -3.428500    0.217200   -0.143900
C     -4.661100    0.871800    0.016800
N     -5.829900    0.256300   -0.286400
C     -5.806000   -1.005800   -0.749900
C     -4.655000   -1.742900   -0.946400
C     -3.450900   -1.101100   -0.631200
S     -1.855500   -1.774800   -0.775200
C     -1.146600   -0.359100   -0.207200
C      0.350500   -0.075200   -0.004800
N      1.457600   -0.842900   -0.215400
