28

C     -6.405600   -0.273400   -0.099400
C     -5.974900   -1.062800    0.939400
O     -4.625800   -0.985300    1.066200
C     -4.174700   -0.123900    0.105400
C     -5.243900    0.327700   -0.643400
C     -2.742100    0.079700    0.080200
C     -1.824900   -0.973000    0.261000
C     -0.393800   -0.815800    0.206100
C      0.441400   -1.952900    0.392200
N      0.029100   -3.219100    0.625600
S      1.389500   -4.170400    0.770300
N      2.575400   -3.020400    0.538500
C      1.888700   -1.902300    0.352800
C      2.526200   -0.629600    0.109600
C      3.946100   -0.448000    0.045600
C      5.048800   -1.313500    0.178200
N      6.321900   -0.860900    0.068100
C      6.535600    0.442600   -0.172600
C      5.530800    1.375600   -0.319600
C      4.219500    0.895800   -0.204000
S      2.786800    1.824100   -0.341400
C      1.719400    0.489900   -0.074500
C      0.291900    0.432000   -0.032200
C     -0.644700    1.490100   -0.194300
C     -0.340500    2.814900   -0.418500
S     -1.725300    3.821400   -0.527900
C     -2.779800    2.502800   -0.272000
C     -2.101700    1.311500   -0.137300
