25

C     -6.515900    0.481200    0.032500
C     -5.965200   -0.095300    1.149900
O     -4.614200   -0.147800    1.039700
C     -4.271800    0.403100   -0.169600
C     -5.428800    0.802000   -0.816500
C     -2.914300    0.502400   -0.598900
C     -2.358200    1.008700   -1.749700
C     -0.946900    0.851900   -1.651400
C      0.108800    1.174200   -2.498300
N      1.385600    0.906000   -2.144900
C      1.711400    0.320700   -0.972400
C      3.100500    0.085200   -0.705600
N      4.028600    0.451600   -1.624300
C      5.345900    0.242600   -1.401400
C      5.852900   -0.341000   -0.261900
C      4.950500   -0.734900    0.710100
C      3.565100   -0.526500    0.499400
C      2.527100   -0.876000    1.400600
C      2.745400   -1.475600    2.620500
S      1.282200   -1.762200    3.459200
C      0.350500   -1.081800    2.186300
C      1.126000   -0.641500    1.138000
C      0.666500   -0.038200   -0.050500
C     -0.662100    0.244000   -0.424800
N     -1.882500    0.048500    0.183500
