24

C     -7.272700    0.121800   -0.283000
C     -6.929300    0.855300    0.824000
O     -5.582000    0.902900    0.960900
C     -5.021300    0.189400   -0.071800
C     -6.051500   -0.306100   -0.858900
C     -3.600000    0.030900   -0.237500
C     -2.935500   -0.660100   -1.231800
C     -1.517700   -0.604700   -1.079700
C     -1.131600    0.126600    0.025900
S     -2.493000    0.735700    0.864300
C      0.220700    0.369700    0.453800
C      0.698900    1.084400    1.539400
C      2.113600    1.013900    1.504200
C      2.446100    0.259700    0.399600
O      1.300000   -0.129000   -0.234400
C      3.678300   -0.193200   -0.212800
C      3.739400   -0.976300   -1.373800
N      4.857900   -1.448900   -2.021000
C      6.103700   -1.169200   -1.544200
C      6.207600   -0.387400   -0.377200
N      7.345500   -0.015700    0.231100
S      6.899600    0.885700    1.548900
N      5.249000    0.844700    1.406800
C      4.959100    0.116900    0.310900
