25

C      6.964800    0.489200    0.196000
C      6.961300   -0.841800   -0.141900
O      5.689200   -1.291300   -0.284500
C      4.849500   -0.239300   -0.036300
C      5.604600    0.879600    0.264600
C      3.416000   -0.512600   -0.137700
C      2.944500   -1.784100   -0.470900
C      1.572400   -2.047800   -0.568600
C      0.623100   -1.025000   -0.330200
C      1.100100    0.238800    0.001200
C      2.482700    0.509400    0.100800
S     -0.185800    1.343700    0.252800
C     -1.403800    0.178100   -0.070300
C     -0.818000   -1.056000   -0.370300
N     -1.544100   -2.171400   -0.669700
C     -2.884800   -2.035200   -0.665100
C     -3.595000   -0.876600   -0.387000
C     -5.043600   -0.860500   -0.415300
C     -5.846900    0.271400   -0.146000
C     -5.049000    1.364700    0.149300
C     -5.486300    2.623600    0.459000
O     -4.409400    3.431200    0.688100
C     -3.281000    2.673700    0.521100
C     -3.619200    1.385800    0.186600
C     -2.806400    0.273900   -0.077400
