30

C      7.376300   -0.422400   -0.864400
C      7.235200    0.758100   -1.552000
O      5.940800    1.164400   -1.534500
C      5.227200    0.237000   -0.826000
C      6.082600   -0.760300   -0.395500
C      3.799400    0.491300   -0.688900
C      3.191200    1.598400   -1.237600
N      1.869700    1.861500   -1.137600
C      1.045300    1.015100   -0.469000
C      1.560100   -0.136300    0.162000
C      2.958100   -0.370700    0.017100
C      0.695700   -0.961600    0.942500
C      1.166800   -2.055500    1.722000
C      0.343500   -2.774600    2.585900
C     -0.975300   -2.400000    2.721200
C     -1.466900   -1.351700    1.944800
C     -0.686800   -0.658200    0.985800
C     -1.232700    0.381000    0.151100
C     -0.327000    1.289500   -0.432300
N     -0.755000    2.449000   -0.983000
C     -2.066700    2.750700   -1.031200
C     -3.080700    1.896400   -0.664900
C     -4.455700    2.306800   -0.870400
C     -5.580300    1.486500   -0.670000
C     -5.163800    0.218100   -0.319500
C     -5.997400   -0.864600   -0.208900
N     -5.194500   -1.957900    0.012900
C     -3.870000   -1.574200    0.032400
C     -3.816100   -0.202200   -0.079300
C     -2.650300    0.633800   -0.142100
