29

C      6.959300   -1.380400   -0.464400
C      6.784300   -0.130500    0.077400
O      5.463600    0.170100    0.158000
C      4.767200   -0.898300   -0.337900
C      5.659800   -1.877500   -0.733100
C      3.315900   -0.775700   -0.340400
C      2.499700   -1.784700   -0.823500
N      1.139500   -1.743300   -0.858200
C      0.478000   -0.659900   -0.394100
C      1.241400    0.423100    0.109600
C      2.659700    0.355300    0.133200
C      0.439100    1.516600    0.514700
C      0.969000    2.708300    0.957700
S     -0.246100    3.876100    1.240600
C     -1.480000    2.783800    0.765400
C     -1.010100    1.520300    0.490000
C     -1.824800    0.404500    0.088600
C     -0.962900   -0.632400   -0.416400
C     -1.624800   -1.711700   -0.988800
N     -2.966200   -1.874700   -1.103800
C     -3.777400   -0.976000   -0.560900
C     -5.138900   -1.284400   -0.690600
C     -6.192200   -0.540900   -0.147300
C     -5.793700    0.564100    0.618100
N     -6.632600    1.374700    1.279200
S     -5.690600    2.466200    2.088000
N     -4.187700    1.969500    1.614000
C     -4.333100    0.934000    0.769500
C     -3.278700    0.181000    0.105600
