28

C     -7.043900    0.956200    0.796800
C     -6.481000    1.332100    1.991600
O     -5.131000    1.215300    1.938000
C     -4.803200    0.757100    0.688700
C     -5.965300    0.589400   -0.043700
C     -3.388200    0.558600    0.439500
N     -2.498900    0.802600    1.457800
C     -1.152600    0.622500    1.286500
C     -0.505300    0.199000    0.127600
C      0.925000    0.008200    0.012600
S      1.903700    1.279100   -0.586200
C      3.365400    0.359100   -0.460800
C      4.644300    0.896400   -0.868400
C      5.785500    0.201100   -1.240600
N      6.887000    0.962300   -1.591400
C      6.579500    2.233800   -1.477100
S      4.988600    2.584400   -0.954400
C      3.089200   -0.898500    0.046000
N      4.037500   -1.855600    0.277500
C      3.483900   -2.986700    0.791500
C      2.123200   -3.169800    1.059000
N      1.154500   -2.240000    0.844800
C      1.683700   -1.093400    0.325200
C     -1.373400   -0.066800   -0.957200
N     -1.019800   -0.486300   -2.186300
S     -2.414900   -0.645500   -3.061600
N     -3.538200   -0.174300   -1.938600
C     -2.869400    0.118100   -0.806900
