30

C     -6.240300    2.633600   -1.606300
C     -6.866400    1.610200   -0.942000
O     -5.953500    0.743400   -0.440500
C     -4.699700    1.197900   -0.776300
C     -4.852400    2.371800   -1.501800
C     -3.501400    0.502900   -0.393700
S     -1.922100    1.048900   -0.824000
C     -1.129500   -0.259700   -0.035500
C      0.289400   -0.426500   -0.029400
S      1.371500    0.816200    0.540300
C      2.796700   -0.112700    0.226000
C      4.145500    0.326200    0.505300
C      5.111000   -0.469100    1.137200
N      6.409000   -0.136200    1.445900
C      6.905700    1.092500    1.124300
C      6.054900    2.001900    0.465800
N      6.373200    3.244200    0.067300
S      5.017500    3.863000   -0.661200
N      3.972300    2.587400   -0.503500
C      4.632600    1.608200    0.143100
C      2.406300   -1.305300   -0.266500
O      3.209300   -2.341700   -0.638600
C      2.249600   -3.240500   -1.065500
C      0.934800   -2.771900   -0.954600
C      1.050600   -1.478700   -0.411500
C     -2.048000   -1.088200    0.551500
S     -1.864800   -2.596800    1.537600
C     -3.617400   -2.585000    1.617300
C     -4.259900   -1.530200    0.961500
C     -3.352100   -0.635900    0.330200
