28

Si    -5.042100    3.009500    0.171000
C     -5.647700    1.293700   -0.205100
C     -4.625900    0.417900   -0.255000
C     -4.827400   -1.008200   -0.358600
C     -3.785300   -1.841500   -0.226100
C     -2.425300   -1.314400   -0.072000
C     -1.317700   -2.148400    0.080100
C     -1.281700   -3.514000    0.211500
O      0.011400   -3.933600    0.342800
C      0.806600   -2.824100    0.287100
C      0.031800   -1.702600    0.127300
C      0.435000   -0.373200   -0.020500
C      1.760700    0.072200   -0.037700
O      2.884500   -0.673500    0.151800
C      3.976700    0.150900    0.052200
C      3.528700    1.435800   -0.213000
C      2.111300    1.390900   -0.272700
C      1.090600    2.313900   -0.526700
C     -0.251200    1.876200   -0.499100
C     -0.655800    0.550100   -0.200600
C     -2.061800    0.086200   -0.124400
C     -3.264700    0.997500   -0.078500
C     -3.305400    2.307700    0.250800
C      5.323300   -0.320400    0.205400
C      6.505200    0.393500    0.131100
N      7.668400   -0.330800    0.322000
C      7.356200   -1.588800    0.539700
S      5.685700   -1.968900    0.528300
