25

C      6.300300   -0.710800    0.619400
C      6.635500    0.073000   -0.454700
S      5.257100    0.699300   -1.229900
C      4.158000   -0.061400   -0.148600
C      4.887000   -0.786000    0.791900
C      2.687800    0.064900   -0.244900
C      1.819800   -0.590000    0.682300
C      0.377000   -0.551200    0.702600
C     -0.298100   -1.263400    1.697500
C     -1.688800   -1.265200    1.770000
C     -2.442500   -0.539800    0.829300
C     -3.855900   -0.531100    0.888800
N     -4.745500   -1.137100    1.751100
C     -6.034100   -0.830700    1.402700
C     -5.986300   -0.013500    0.297800
C     -4.617500    0.182100   -0.035100
C     -3.951100    0.894500   -1.029700
N     -2.596400    0.891900   -1.094500
C     -1.837600    0.204300   -0.205100
C     -0.408800    0.182400   -0.247500
C      0.460300    0.833900   -1.170200
C      0.069100    1.628400   -2.222400
N      1.198700    2.060900   -2.862700
C      2.315600    1.555600   -2.237400
C      1.908800    0.781700   -1.172800
