23

C      5.887100   -0.129900   -0.235000
C      5.787400    0.915900    0.647400
S      4.165200    1.313500    0.976200
C      3.542000    0.079700   -0.068000
C      4.604900   -0.605400   -0.641800
C      2.076200   -0.099300   -0.225400
C      1.122000    0.718600    0.460600
C     -0.244700    0.497900    0.268500
O     -1.300600    1.196700    0.853600
C     -2.360500    0.565500    0.316400
C     -3.654100    0.717000    0.438600
N     -4.509600    1.500600    1.096000
C     -5.756500    1.029400    0.693000
C     -5.624800   -0.038300   -0.207300
C     -4.233100   -0.199700   -0.337400
O     -3.280900   -0.952000   -0.968000
C     -2.101400   -0.434800   -0.526500
C     -0.729200   -0.486500   -0.564200
C      0.103600   -1.345400   -1.285400
N     -0.334500   -2.296600   -2.089800
S      1.090300   -2.968900   -2.650800
N      2.212600   -2.024000   -1.848700
C      1.542300   -1.125300   -1.093400
