27

Si    -2.860800    4.178400    0.067500
C     -4.346500    3.042100    0.089000
C     -3.966400    1.750300    0.077000
C     -4.892800    0.634000    0.088700
C     -4.441000   -0.633100    0.075400
C     -2.997900   -0.907100    0.048900
C     -2.453300   -2.196400    0.034000
C     -3.106300   -3.408500    0.040400
O     -2.201200   -4.444700    0.020200
C     -0.941900   -3.897300    0.000300
C     -1.092600   -2.548600    0.008500
C     -0.144100   -1.501300   -0.003800
C      1.244200   -1.508600   -0.028200
C      1.605500   -0.164100   -0.028900
O      0.459600    0.611700   -0.005600
C     -0.634700   -0.213000    0.010200
C     -2.008000    0.132400    0.035800
C     -2.498100    1.526900    0.050200
C     -1.769600    2.662200    0.042000
C      2.919600    0.413400   -0.049500
S      3.158800    2.142800   -0.046100
C      4.888700    2.025800   -0.076900
C      5.212000    0.717800   -0.088400
N      6.470800    0.192600   -0.112700
C      6.193800   -1.172000   -0.113900
C      4.804500   -1.419700   -0.090600
C      4.147100   -0.157700   -0.073500
