29

C     -6.096700    1.814500   -0.045300
C     -6.129600    1.901900    1.328600
S     -4.637100    1.458000    2.037600
C     -3.934900    1.140300    0.506700
C     -4.826800    1.375700   -0.521300
C     -2.542400    0.683300    0.423600
C     -1.542000    1.650800    0.547900
C     -0.191800    1.286700    0.416200
S      1.126600    2.361700    0.644700
C      2.296700    1.207300    0.137800
C      1.629200    0.035600   -0.198100
C      2.421700   -0.980100   -0.871200
N      1.898900   -2.046900   -1.454400
S      3.212800   -2.857500   -2.078900
N      4.436600   -1.817800   -1.634400
C      3.859400   -0.773800   -1.000800
C      4.534400    0.384400   -0.527500
C      5.924600    0.572700   -0.633300
C      6.453700    1.765100   -0.178100
N      5.711500    2.758700    0.355300
C      4.373300    2.555700    0.444000
C      3.717600    1.388700    0.027200
C      0.214000   -0.017900    0.113700
C     -0.819800   -1.037700    0.163900
C     -0.508800   -2.418500    0.181900
C     -1.493900   -3.407800    0.178000
C     -2.828800   -3.047600    0.185600
C     -3.173400   -1.699100    0.242500
C     -2.196300   -0.672700    0.265500
