25

C      6.565400    1.225200    0.993100
C      7.027300    0.013800    0.538500
S      5.756800   -1.003300    0.027300
C      4.547700    0.168500    0.407500
C      5.143600    1.313700    0.917900
C      3.117200   -0.123600    0.177400
C      2.126400    0.801500    0.474800
C      0.800500    0.421400    0.217200
S     -0.604700    1.355900    0.486000
C     -1.673500    0.134100   -0.092400
C     -0.944700   -0.992000   -0.491600
C     -1.659600   -2.090500   -0.992500
N     -3.007500   -2.079500   -1.093200
C     -3.709500   -1.012800   -0.716000
C     -5.103400   -1.087400   -0.855100
C     -6.006800   -0.064200   -0.511100
C     -5.428100    1.110300    0.009800
N     -6.103200    2.201200    0.399000
S     -4.970800    3.289600    0.928400
N     -3.579600    2.424500    0.686600
C     -3.930600    1.230600    0.175500
C     -3.081300    0.146400   -0.197300
C      0.486200   -0.824000   -0.311800
C      1.551700   -1.696000   -0.581800
N      2.832700   -1.339400   -0.337300
