24

C     -6.979900   -0.228600    0.411000
C     -7.400300    0.952600   -0.156100
S     -6.087900    1.906500   -0.694500
C     -4.936700    0.747400   -0.173900
C     -5.559200   -0.345700    0.400200
C     -3.512700    0.927800   -0.332900
C     -2.831300    2.011300   -0.905000
C     -1.466300    1.674500   -0.803900
S      0.202900    2.055500   -1.074600
C      0.862900    0.604400   -0.384800
C     -0.229900   -0.089500    0.013500
O      0.014800   -1.272700    0.590200
C      1.388500   -1.328300    0.551000
C      2.131000   -2.398800    1.047400
C      3.524700   -2.318800    0.939800
C      4.161600   -1.210300    0.357400
C      5.559200   -1.141700    0.255300
C      6.181900   -0.033600   -0.326200
C      5.419700    1.025200   -0.815800
C      4.028700    0.984000   -0.727700
C      3.391400   -0.128700   -0.143200
C      1.979400   -0.197800   -0.040100
C     -1.433200    0.466200   -0.204400
O     -2.625900   -0.049300    0.110000
