29

C      8.003700    0.798000    0.902400
C      8.363500    0.509500   -0.395300
S      7.004800    0.175600   -1.379200
C      5.921100    0.403300   -0.071300
C      6.591800    0.737100    1.089400
C      4.494800    0.238500   -0.285900
C      3.712000    1.129600   -1.057400
C      2.303300    0.982800   -1.254300
C      1.536400   -0.069400   -0.699300
C      0.109800   -0.227400   -0.922000
C     -0.557600   -1.225700   -1.604200
C     -1.970200   -1.036700   -1.596600
C     -2.339100    0.101800   -0.909800
S     -0.977800    0.937800   -0.295900
C     -3.685200    0.631200   -0.670400
C     -4.148500    1.654700   -1.514000
C     -5.423800    2.184600   -1.350200
C     -6.252400    1.694500   -0.343700
C     -5.820700    0.671000    0.514400
C     -6.672600    0.190300    1.523300
C     -6.263100   -0.823900    2.388200
C     -4.993400   -1.370200    2.257600
C     -4.134400   -0.903500    1.259900
C     -4.521900    0.122000    0.362900
C      2.309100   -0.960000    0.069900
C      1.809300   -2.055000    0.737800
S      3.042900   -2.919000    1.562200
C      4.258300   -1.821300    1.046900
C      3.739100   -0.809800    0.271200
