30

C      7.180200    2.518600    0.392600
C      7.728800    1.267300    0.561200
S      6.531500    0.051000    0.667800
C      5.265000    1.188100    0.467100
C      5.756100    2.473500    0.346900
C      3.884500    0.749100    0.486300
C      2.955600    1.089800    1.500800
C      1.581000    0.662100    1.509600
C      0.993400   -0.137500    0.497300
C     -0.380600   -0.572100    0.492900
S     -1.533200    0.014600   -0.635600
C     -2.823400   -0.925300    0.028900
C     -4.144700   -0.904400   -0.522000
S     -5.068700   -2.340000   -0.855300
C     -6.434600   -1.458900   -1.469500
C     -6.136500   -0.146800   -1.394300
C     -6.691900    1.124800   -1.674200
C     -5.728700    2.086300   -1.301500
N     -4.576500    1.489900   -0.793700
C     -4.894900    0.163100   -0.884000
C     -2.317100   -1.624900    1.077600
C     -2.867500   -2.533900    2.023300
C     -1.923000   -2.996100    2.946000
S     -0.291200   -2.374400    2.767100
C     -0.961300   -1.447500    1.367200
C      1.920500   -0.457000   -0.499000
C      1.742600   -1.214100   -1.628700
O      2.910200   -1.266100   -2.339000
C      3.845900   -0.544400   -1.650600
C      3.289500   -0.037500   -0.504200
