25

C     -7.718700   -0.348900   -1.014100
C     -7.571600    0.074200   -2.315300
S     -5.940800    0.408700   -2.701900
C     -5.407200   -0.007000   -1.125600
C     -6.469500   -0.407100   -0.332300
C     -3.984500    0.048800   -0.783700
C     -3.378400   -0.995700   -0.084600
C     -2.026400   -0.913500    0.256100
C     -1.286300    0.215100   -0.098900
N     -1.861000    1.244600   -0.779400
C     -3.176500    1.136600   -1.099900
C      0.146900    0.363200    0.253800
C      0.862700    1.533300   -0.007400
C      2.207900    1.617900    0.354300
C      2.826800    0.531700    0.962600
C      2.047900   -0.593200    1.198200
N      0.737400   -0.699800    0.866500
C      4.234900    0.558000    1.315600
S      4.780600    1.428500    2.702800
C      6.431400    0.991900    2.449400
C      6.551400    0.204500    1.336300
S      7.992800   -0.550000    0.565500
C      6.844900   -1.177500   -0.614200
C      5.502200   -0.832600   -0.416100
C      5.315100   -0.019200    0.732800
