27

C      7.790400   -0.470200   -0.251200
C      7.761900   -1.474100   -1.191100
S      6.165700   -1.896200   -1.629000
C      5.485400   -0.729700   -0.565700
C      6.479200   -0.044300    0.111900
C      4.030200   -0.585700   -0.448600
C      3.179000   -0.604300   -1.556600
C      1.801700   -0.447400   -1.385300
C      1.299500   -0.267700   -0.100600
N      2.095300   -0.243300    0.992200
C      3.427700   -0.400700    0.793500
C     -0.120800   -0.102900    0.165200
S     -1.315700   -1.146000   -0.506300
C     -2.621900   -0.334300    0.273900
C     -3.987900   -0.725600    0.094600
S     -4.528000   -2.378200    0.256800
C     -6.186200   -1.993100   -0.071000
C     -6.258600   -0.667900   -0.286500
O     -7.380800    0.041100   -0.583900
C     -6.832000    1.305200   -0.700600
C     -5.449100    1.353000   -0.481900
C     -5.076200    0.025200   -0.198400
C     -2.095400    0.683800    1.000200
C     -2.651000    1.672200    1.858000
C     -1.684700    2.527800    2.395800
S     -0.023100    2.219400    1.923100
C     -0.706700    0.844000    0.962700
