30

C      7.324700   -0.407800    0.072000
C      7.435500    0.846500   -0.481200
S      5.908700    1.548800   -0.786200
C      5.071300    0.178600   -0.172600
C      5.963400   -0.794000    0.246000
C      3.605900    0.140200   -0.167900
C      2.913600   -1.012700   -0.489100
N      1.555800   -1.140700   -0.490400
C      0.732800   -0.118200   -0.168700
C      1.404100    1.100000    0.149200
C      2.817400    1.228600    0.166300
C      0.507600    2.124400    0.457400
C      0.814800    3.386400    0.898500
O     -0.333200    4.066600    1.161000
C     -1.368600    3.228500    0.867100
C     -0.904000    2.033600    0.364400
C     -1.635300    0.881300   -0.053800
C     -3.053400    0.818600   -0.325600
C     -3.874000    1.970000   -0.497200
C     -5.247600    1.912300   -0.723400
C     -5.855900    0.683200   -0.814200
C     -5.073300   -0.465700   -0.716200
C     -3.662000   -0.442700   -0.498300
C     -2.857800   -1.627700   -0.453500
C     -3.447300   -2.921000   -0.571600
C     -2.721600   -4.107000   -0.528400
C     -1.363200   -4.042500   -0.349800
C     -0.750900   -2.793500   -0.233000
C     -1.435500   -1.544000   -0.302300
C     -0.756800   -0.264900   -0.176100
