25

C      6.585500   -1.066600    0.613700
C      6.994700    0.215500    0.341000
S      5.678500    1.244900    0.006100
C      4.517000   -0.013000    0.220200
C      5.167000   -1.196600    0.544300
C      3.064100    0.238400    0.058700
C      2.536000    1.499600   -0.274800
N      1.223900    1.829900   -0.444800
C      0.374100    0.792500   -0.261100
C      0.799300   -0.490700    0.070300
C      2.143600   -0.807500    0.239400
O     -0.258400   -1.350900    0.197700
C     -1.402000   -0.621900   -0.054100
C     -1.005700    0.674000   -0.330500
C     -2.028800    1.602100   -0.620600
C     -1.985100    2.923100   -0.927800
O     -3.282100    3.336700   -1.116400
C     -4.101700    2.248700   -0.918600
C     -3.353500    1.137700   -0.604900
C     -3.810500   -0.173500   -0.329100
C     -5.128300   -0.667500   -0.306000
C     -5.331000   -2.011400   -0.004600
C     -4.226000   -2.813500    0.261700
N     -2.943100   -2.382500    0.250800
C     -2.747400   -1.076000   -0.042200
