25

C      6.486300   -1.182300    0.892500
C      6.679500    0.129700    0.536300
S      5.208600    0.917500    0.190100
C      4.267200   -0.493000    0.511800
C      5.105100   -1.538200    0.878200
C      2.790600   -0.479700    0.384800
C      2.036300   -1.632800    0.649200
N      0.682400   -1.745400    0.568100
C      0.008800   -0.635800    0.197000
C     -1.403200   -0.744800    0.110200
O     -2.180900   -1.855500    0.360500
C     -3.481200   -1.487000    0.147400
C     -4.599400   -2.299300    0.284700
C     -5.818100   -1.680800    0.007500
C     -5.839500   -0.341100   -0.374500
N     -4.758700    0.462500   -0.512400
C     -3.577000   -0.149600   -0.240100
C     -2.256500    0.281700   -0.252300
C     -1.658100    1.527400   -0.556000
C     -2.219400    2.706200   -0.937300
N     -1.152800    3.567600   -1.092900
C      0.039900    2.916100   -0.808500
C     -0.258600    1.615800   -0.464300
C      0.652600    0.593400   -0.098100
C      2.060800    0.655100    0.001800
