28

C     -5.930400    3.709100   -0.422200
C     -6.976100    2.831800   -0.570800
S     -6.448800    1.211100   -0.579800
C     -4.793400    1.645900   -0.383300
C     -4.680800    3.029300   -0.314900
C     -3.720700    0.660900   -0.307400
S     -2.087900    1.178500   -0.110400
C     -1.411300   -0.410700   -0.101800
C      0.058500   -0.590500    0.049400
C      0.659900   -1.852800    0.063300
C      2.046000   -1.999000    0.206900
C      2.841500   -0.869300    0.338200
N      2.300600    0.373500    0.330000
C      0.950000    0.476200    0.188600
C      4.297600   -0.916400    0.493300
S      5.240200   -2.380300    0.535700
C      6.752900   -1.548200    0.732500
C      6.487200   -0.227800    0.757300
C      7.131100    1.028500    0.877500
C      6.125300    2.017300    0.809100
N      4.863700    1.452100    0.650200
C      5.161500    0.118900    0.628400
C     -2.438000   -1.329500   -0.249700
N     -2.238700   -2.681800   -0.282900
C     -3.400100   -3.365200   -0.435800
C     -4.659800   -2.782300   -0.548000
N     -4.899800   -1.450300   -0.520000
C     -3.754600   -0.720300   -0.367000
