29

Si    -4.406700   -4.045700   -0.535300
C     -5.609000   -2.659900   -0.262700
C     -4.971700   -1.485000   -0.099400
C     -5.675300   -0.248000    0.129000
C     -4.994900    0.896100    0.285900
C     -3.521800    0.925400    0.230200
C     -2.788900    2.109500    0.391300
C     -3.374800    3.341700    0.614700
S     -2.229800    4.611200    0.772700
C     -0.916600    3.528100    0.543400
C     -1.373800    2.253400    0.356300
C     -0.578100    1.054000    0.129500
C      0.859600    0.986100    0.059100
C      1.907600    1.914700    0.166000
N      3.210100    1.552100    0.053500
C      3.551900    0.262400   -0.169300
C      2.583300   -0.721200   -0.288500
C      1.239100   -0.334400   -0.170300
S     -0.102700   -1.381000   -0.284100
C     -1.284300   -0.144900   -0.035100
C     -2.722200   -0.244100    0.008400
C     -3.482700   -1.531500   -0.168000
C     -3.027900   -2.784900   -0.388500
C      5.000400   -0.039600   -0.278100
C      5.978500    0.950800   -0.158300
C      7.324900    0.607600   -0.269400
C      7.671500   -0.716100   -0.498000
C      6.652900   -1.645000   -0.606200
N      5.339800   -1.340600   -0.502700
