28

C      6.771800   -1.859600   -0.047500
C      7.193400   -0.676300   -0.608300
S      5.841200    0.321600   -0.931200
C      4.786400   -0.895400   -0.294700
N      5.409700   -1.981300    0.130500
C      3.325100   -0.690400   -0.277800
C      2.726500    0.543100   -0.092400
C      1.313000    0.611600   -0.084000
C      0.567200    1.800900    0.022300
C      1.062700    3.074300    0.152700
O      0.034600    3.963900    0.215900
C     -1.125300    3.250700    0.120000
C     -0.856600    1.909600   -0.019000
C     -1.749000    0.832300   -0.134200
C     -3.163100    0.950300   -0.226100
N     -4.035900    2.018200   -0.324800
C     -5.342900    1.584100   -0.394000
C     -5.349200    0.208100   -0.345900
C     -4.003000   -0.146400   -0.255600
C     -3.414600   -1.431200   -0.151300
C     -4.139900   -2.585500   -0.087600
S     -3.062900   -3.895100    0.153000
C     -1.690000   -2.843200    0.174100
C     -1.994000   -1.520100   -0.088600
C     -1.031000   -0.447000   -0.148900
C      0.474400   -0.534500   -0.210100
C      1.229400   -1.693900   -0.447200
N      2.587200   -1.805200   -0.469500
