23

Si    -1.056700   -0.196500   -1.449000
C     -2.238100    0.133200    0.017300
C     -1.553800    0.293500    1.173100
C     -0.099600    0.176600    1.020200
C      0.376700   -0.082300   -0.289100
C      1.744400   -0.216000   -0.566000
S      2.569800   -0.527800   -2.051600
C      4.130700   -0.484500   -1.248500
C      5.477800   -0.647000   -1.695000
C      6.356600   -0.518100   -0.646300
S      5.602500   -0.207100    0.857600
C      4.027300   -0.241400    0.101200
C      2.668500   -0.094600    0.454300
C      2.278600    0.168600    1.817300
N      3.111900    0.295400    2.837000
S      2.090000    0.585600    4.129800
N      0.601800    0.544100    3.365300
C      0.841600    0.300600    2.061100
C     -3.653500    0.208600   -0.051100
C     -4.627400    0.439700    0.909200
C     -5.895200    0.406200    0.282100
C     -5.678300    0.155500   -1.050400
N     -4.325700    0.037500   -1.244000
