27

Si    -5.455400   -2.616200   -0.403700
C     -6.018400   -0.851400   -0.352900
C     -4.974400   -0.004900   -0.272500
C     -5.141500    1.425600   -0.219100
C     -4.067600    2.221500   -0.139700
C     -2.699200    1.668400   -0.104900
C     -1.615400    2.610500   -0.018800
N     -1.702700    3.954200    0.034200
S     -0.155200    4.539400    0.124900
N      0.713000    3.126300    0.102200
C     -0.189000    2.131800    0.021700
C      0.059500    0.749300   -0.026100
C     -1.054800   -0.170100   -0.112400
Si    -0.235200   -1.973800   -0.153500
C      1.475400   -1.241200   -0.049700
C      2.816500   -1.604900   -0.007800
C      3.534300   -0.412800    0.073000
N      2.624500    0.634300    0.078400
C      1.363200    0.124700    0.003100
C      4.947600   -0.192000    0.142600
C      5.668100    0.985800    0.222400
C      7.045400    0.654100    0.267400
C      7.135900   -0.717000    0.214200
N      5.862600   -1.218800    0.139000
C     -2.410900    0.250500   -0.152500
C     -3.623000   -0.633700   -0.241600
C     -3.687700   -1.981500   -0.301600
