29

C      6.779300   -2.201200    0.520400
C      7.344700   -1.080200    1.083400
S      6.161000    0.146500    1.232700
C      4.994700   -0.886900    0.493300
N      5.438600   -2.098000    0.207400
C      3.603600   -0.483300    0.314400
C      2.550900   -1.393900    0.500000
C      1.176300   -1.075800    0.340400
C      0.251500   -2.088500    0.505300
N     -1.084100   -1.964900    0.362200
C     -1.644700   -0.774300    0.096900
C     -3.090300   -0.762900   -0.027600
C     -3.843000   -1.956300    0.066100
C     -5.240400   -1.989800   -0.054000
C     -5.956300   -0.818900   -0.271900
C     -5.277800    0.389300   -0.366800
C     -3.865400    0.414100   -0.246800
C     -3.044000    1.552100   -0.287700
C     -3.477700    2.851200   -0.403500
N     -2.368100    3.651500   -0.318400
C     -1.246500    2.874100   -0.132100
C     -1.616600    1.550700   -0.181900
C     -0.795000    0.385100   -0.037600
C      0.664400    0.207600    0.005600
C      1.732400    1.150500   -0.305400
N      1.589600    2.386400   -0.811100
S      3.082500    3.050500   -1.009200
N      4.028100    1.807800   -0.486600
C      3.211400    0.797100   -0.138600
