26

C      6.430600   -0.161900    0.375600
C      6.700500   -0.187100    1.723700
S      5.233800   -0.161600    2.602500
C      4.338500   -0.118700    1.124200
N      5.093200   -0.123300    0.038300
C      2.860300   -0.080700    1.097900
C      2.065100   -0.075800    2.232400
C      0.671500   -0.038700    2.116100
C     -0.014900   -0.004200    0.870500
C      0.778400   -0.008500   -0.304100
C      2.197200   -0.046900   -0.141000
C      0.149600    0.025000   -1.593500
C      0.894900    0.022500   -2.808600
C      0.305200    0.054700   -4.070900
C     -1.066500    0.091000   -4.169000
C     -1.830700    0.094700   -3.003100
C     -1.267400    0.062500   -1.693600
C     -2.072600    0.067000   -0.505700
C     -3.501400    0.104200   -0.564700
C     -4.296600    0.108800    0.591300
C     -5.684100    0.140200    0.885400
C     -5.786200    0.124200    2.257900
O     -4.552200    0.085000    2.826900
C     -3.650700    0.075800    1.806900
C     -2.268200    0.038700    1.941000
C     -1.446300    0.033600    0.776400
