31

Si    -5.041400    2.867000    2.433000
C     -6.120500    1.954000    1.228700
C     -5.396000    1.124700    0.453900
C     -5.994300    0.259900   -0.535800
C     -5.226100   -0.574400   -1.250600
C     -3.764500   -0.610800   -1.063200
C     -2.991300   -1.458900   -1.883900
N     -3.454500   -2.266300   -2.864600
S     -2.134500   -2.974400   -3.588500
N     -0.914900   -2.312700   -2.670000
C     -1.547000   -1.565500   -1.779400
C     -0.867100   -0.767400   -0.781600
C     -1.638000    0.164000   -0.074100
S     -0.534600    1.207400    0.771300
C      0.873300    0.352500    0.297300
C      2.210600    0.700500    0.635700
C      3.301100   -0.093500    0.252000
C      4.670300    0.251600    0.578400
C      5.273300    0.114700    1.776700
C      6.648400    0.586200    1.831900
C      7.122300    1.110600    0.686700
Si     5.824200    1.066500   -0.679000
C      2.921800   -1.277100   -0.390600
C      3.826900   -2.264700   -0.727200
S      3.066600   -3.652300   -1.396900
C      1.504000   -2.954700   -1.228800
C      1.598100   -1.678500   -0.749900
C      0.511500   -0.754500   -0.455500
C     -3.068400    0.219000   -0.136500
C     -3.924300    1.123500    0.699300
C     -3.574400    1.946600    1.711600
