21

C      6.193700   -0.046100   -1.068100
C      6.325500   -0.767800    0.094900
S      4.783700   -1.022600    0.789000
C      4.044900   -0.152700   -0.509600
N      4.902500    0.300800   -1.408300
C      2.582400    0.055700   -0.591500
C      2.064900    0.773600   -1.679600
C      0.692300    1.003100   -1.812300
C     -0.209800    0.520200   -0.857300
C     -1.590000    0.752900   -0.993700
C     -2.470900    0.256900   -0.021100
C     -1.974200   -0.462400    1.073100
C     -0.602200   -0.703400    1.224600
C      0.284100   -0.206300    0.249200
C      1.670700   -0.426400    0.363800
N     -3.031400   -0.841900    1.885600
C     -4.191400   -0.377000    1.327900
C     -5.589900   -0.327200    1.495400
C     -6.002400    0.388200    0.392700
O     -4.970500    0.768300   -0.416400
C     -3.861200    0.276100    0.195200
