26

C      7.436600   -0.233300   -0.818800
C      7.732200    0.414100   -1.997100
S      6.294000    1.033100   -2.690900
C      5.384600    0.392600   -1.371500
N      6.102400   -0.244900   -0.463200
C      3.949800    0.554900   -1.288500
N      3.234700    1.200100   -2.191800
C      1.900100    1.180200   -1.834500
C      1.593800    0.527100   -0.656100
S      3.042700   -0.093200    0.023800
C      0.303900    0.371800   -0.043500
S     -0.194800   -1.090600    0.727300
C     -1.757300   -0.486200    1.120700
C     -2.748600   -1.260100    1.799300
S     -2.441500   -2.028500    3.336800
C     -4.036100   -2.698900    3.453000
C     -4.712700   -2.326900    2.352100
O     -5.998800   -2.649700    2.048300
C     -6.116800   -2.007000    0.829400
C     -4.958600   -1.332700    0.421200
C     -4.025300   -1.548900    1.452900
C     -1.891700    0.804800    0.684900
S     -3.254300    1.991100    0.813700
C     -2.182700    3.094900   -0.028600
C     -0.919400    2.597700   -0.364300
C     -0.731300    1.247100    0.041600
