28

C     -6.108300   -1.062800    2.404800
C     -6.719700    0.154500    2.212600
S     -5.729500    1.148900    1.225000
C     -4.560200   -0.116800    1.143200
N     -4.870600   -1.210000    1.809500
C     -3.309500    0.032600    0.452200
S     -1.840500   -0.443800    1.213500
C     -0.866500    0.031200   -0.125500
C      0.589100   -0.075300   -0.054800
C      1.428900    1.028600   -0.308700
C      2.838400    0.959400   -0.249900
C      3.551500   -0.219300    0.061900
C      5.009700   -0.218100    0.124300
N      5.714800    0.791400    0.606100
C      7.065600    0.526400    0.489200
C      7.387300   -0.666800   -0.120100
S      5.952500   -1.487000   -0.565500
C      2.764200   -1.368300    0.349700
N      3.197900   -2.583300    0.726900
S      1.868100   -3.552800    0.890100
N      0.662000   -2.486600    0.524700
C      1.242600   -1.299200    0.271200
C     -1.655300    0.543600   -1.131800
N     -1.151100    1.003900   -2.315200
C     -2.145600    1.425000   -3.141800
C     -3.507500    1.422000   -2.828100
N     -4.036600    0.995700   -1.650700
C     -3.064600    0.542900   -0.802600
