30

C      6.649100    3.069500    0.344000
C      7.637400    2.153800    0.066200
S      6.927100    0.655700   -0.357000
C      5.354700    1.334800   -0.145600
N      5.356800    2.601500    0.224400
C      4.133300    0.596600   -0.331300
S      2.605800    1.166800    0.289000
C      1.709700   -0.197200   -0.300500
C      0.304400   -0.342400   -0.090400
S     -0.850200    0.847300   -0.565500
C     -2.192300   -0.074400   -0.001600
C     -3.539800    0.440000   -0.128400
C     -4.185700    0.659900   -1.369400
C     -5.527300    1.145500   -1.495100
C     -6.358200    1.460300   -0.398300
C     -5.715500    1.247200    0.821800
C     -6.326100    1.493100    2.026400
S     -5.272800    1.148700    3.339500
C     -3.995000    0.675500    2.289400
C     -4.363600    0.758100    0.965900
C     -1.708800   -1.231600    0.512800
C     -2.319300   -2.367900    1.105100
C     -1.388200   -3.332300    1.503600
S      0.300500   -2.956900    1.198800
C     -0.324600   -1.415000    0.484800
C      2.585700   -1.001200   -0.942500
C      2.630400   -2.215600   -1.674800
C      3.968100   -2.413900   -2.069400
N      4.789600   -1.380300   -1.630100
C      3.899700   -0.578500   -0.967000
