18

C      5.517600   -0.198100    0.661800
N      4.257300   -0.563800    0.723600
C      3.446900    0.441100    0.206500
C      1.993800    0.284000    0.155900
C      1.126500    1.368900   -0.010900
C     -0.269300    1.186100   -0.042700
C     -0.829800   -0.101000    0.065400
C      0.044500   -1.191800    0.226000
C      1.435300   -0.992000    0.287000
C     -0.499100   -2.590200    0.370600
C     -1.882800   -2.706700   -0.252400
C     -2.779000   -1.600900    0.282600
N     -2.204000   -0.288400    0.016300
C     -3.095300    0.827300   -0.272500
C     -2.557900    2.121500    0.317400
C     -1.160700    2.389000   -0.223300
C      4.136200    1.548400   -0.255000
S      5.824500    1.342400   -0.019700
