31

Si    -5.777700   -1.404300    2.397100
C     -6.383200   -0.153300    1.163800
C     -5.370200    0.318000    0.412100
C     -5.579300    1.164400   -0.736400
C     -4.549900    1.447800   -1.546400
C     -3.180600    0.992700   -1.235400
C     -2.142100    1.306200   -2.154900
N     -2.281600    1.910800   -3.350600
S     -0.773700    2.002200   -4.024000
N      0.126700    1.306700   -2.828300
C     -0.714100    0.965600   -1.835000
C     -0.380800    0.380800   -0.579800
C      0.949300    0.112400   -0.217600
O      2.060600    0.285000   -0.987000
C      3.164700   -0.090100   -0.265000
C      2.738800   -0.499300    0.988000
C      1.325400   -0.371600    1.024000
C      0.331500   -0.586600    1.982700
C     -1.010000   -0.340300    1.633400
C     -1.434200    0.092500    0.351000
C     -2.821200    0.297100   -0.028500
C     -4.013800   -0.184000    0.760600
C     -4.053900   -1.158500    1.696600
C      4.494900   -0.029100   -0.799300
S      4.799600    0.541500   -2.423900
C      6.512500    0.322700   -2.309100
C      6.776800   -0.159300   -1.082500
O      8.007500   -0.468300   -0.591800
C      7.651500   -0.900300    0.671100
C      6.275000   -0.853200    0.926400
C      5.694000   -0.353800   -0.257300
