17

C      5.180300   -0.201200    0.218200
N      4.058500   -0.179700   -0.456100
C      3.133900   -0.063200    0.546700
C      1.615200    0.007000    0.280000
C      0.983900   -0.034600   -0.947800
C     -0.402700    0.060700   -0.698200
N     -1.469000    0.068300   -1.541900
C     -2.680500    0.176400   -0.931900
C     -3.991900    0.218900   -1.448300
C     -4.823900    0.335800   -0.355200
O     -4.108600    0.368200    0.804400
C     -2.796600    0.270900    0.454600
N     -1.757900    0.265900    1.315400
C     -0.574000    0.157800    0.680800
N      0.661400    0.123700    1.259900
N      3.642600   -0.013900    1.785300
O      5.019900   -0.106900    1.563100
