10

C      2.867800   -0.450600   -0.579000
N      1.588900   -0.689900   -0.765200
C      0.841900    0.114900    0.079600
C     -0.611100   -0.000100    0.026300
C     -1.550400    0.717300    0.791200
N     -2.810500    0.375500    0.500600
N     -2.669300   -0.563400   -0.453200
C     -1.370100   -0.823400   -0.772000
C      1.576500    0.953400    0.894200
S      3.253400    0.733500    0.599600
