10

C      2.940200    0.013000    0.502600
N      1.731100    0.016300    1.005300
C      0.959100    0.000700   -0.129400
C     -0.490000   -0.001700   -0.042100
C     -1.239400    0.011000    1.147700
N     -2.557200    0.005100    0.916000
N     -2.641900   -0.011400   -0.426600
C     -1.427700   -0.016100   -1.048900
N      1.645600   -0.011700   -1.280900
O      2.976900   -0.003400   -0.854400
