17

C     -5.227300   -0.038100   -0.097200
N     -4.067200   -0.128300    0.501400
C     -3.191600    0.123000   -0.535200
C     -1.622700    0.132700   -0.339900
N     -0.753400    0.370600   -1.315000
C      0.470000    0.280900   -0.709100
C      1.766600    0.430600   -1.207900
C      2.817300    0.273500   -0.314500
O      4.154900    0.370500   -0.560800
C      4.720800    0.127800    0.656800
N      3.878100   -0.110800    1.639700
C      2.652200   -0.021100    1.033200
C      1.355000   -0.170500    1.530100
C      0.305200   -0.013000    0.635400
O     -1.028400   -0.110200    0.883200
N     -3.787300    0.356800   -1.716600
O     -5.146800    0.248500   -1.420200
