17

C     -4.994300    0.140600    1.524700
N     -3.683200    0.070400    1.555400
C     -3.183700    0.098500    0.260300
C     -1.623600    0.028300   -0.023200
N     -0.749400   -0.058800    0.957200
C      0.534400   -0.105000    0.449700
C      1.715300   -0.198500    1.196900
C      2.953500   -0.236700    0.556600
S      4.536100   -0.348000    1.225100
C      5.193600   -0.316300   -0.355300
N      4.333800   -0.229600   -1.344700
C      3.047600   -0.183300   -0.834600
C      1.865800   -0.089900   -1.580900
C      0.628100   -0.051700   -0.939400
S     -0.952600    0.059300   -1.604600
C     -4.142800    0.190400   -0.730400
S     -5.709400    0.243400   -0.029500
