17

C      5.332400    0.640100   -0.574100
N      4.104400    0.911200   -0.935600
C      3.369900    0.184200   -0.020600
C      1.787000    0.159400   -0.010300
N      1.089300   -0.536100    0.865200
C     -0.262700   -0.367800    0.632900
C     -1.304900   -0.952900    1.363200
C     -2.633400   -0.699400    1.022800
S     -4.084800   -1.281000    1.743300
C     -4.996000   -0.391300    0.599000
N     -4.311100    0.305800   -0.278800
C     -2.956900    0.137300   -0.046000
C     -1.914000    0.721900   -0.775800
C     -0.585700    0.467900   -0.434800
S      0.863800    1.048300   -1.153700
N      4.115300   -0.501600    0.862100
O      5.424300   -0.195100    0.489800
