17

C      4.829600   -0.305100    0.349000
N      4.223800    0.860200    0.256700
C      2.897200    0.522600    0.195400
C      1.742700    1.302500    0.089800
C      0.524100    0.638700    0.050700
O     -0.722400    1.176400   -0.048500
C     -1.562100    0.086000   -0.044600
C     -3.093500    0.210900   -0.140400
C     -3.877300    1.367200   -0.242700
N     -5.180800    1.076000   -0.304900
O     -5.249200   -0.311300   -0.241400
C     -3.993000   -0.818900   -0.143000
N     -0.936400   -1.076500    0.048600
C      0.389800   -0.740300    0.110000
C      1.543200   -1.521600    0.215600
C      2.762500   -0.859000    0.254800
O      4.011400   -1.397000    0.354200
