17

C     -4.910000    0.551500    0.165600
N     -4.121700    1.559400   -0.143700
C     -2.866600    1.014200   -0.066000
C     -1.599000    1.561600   -0.278700
C     -0.504400    0.723400   -0.114800
O      0.812600    1.026000   -0.265200
C      1.465900   -0.154300    0.013000
C      3.032300   -0.295300   -0.033100
C      3.671900   -1.485700    0.248500
S      5.368400   -1.280900    0.103800
C      5.112800    0.362700   -0.318400
N      3.862200    0.766000   -0.358700
N      0.656000   -1.158500    0.322400
C     -0.597300   -0.612600    0.244400
C     -1.864300   -1.161700    0.457600
C     -2.959600   -0.324500    0.293900
O     -4.280800   -0.626600    0.444400
