25

Si     4.935500    2.754100    0.419900
C      5.699600    1.068000    0.162700
C      4.748400    0.122900    0.040800
C      5.018200   -1.282500   -0.167000
C      4.000800   -2.154100   -0.276300
C      2.586500   -1.719300   -0.190200
C      1.570800   -2.674100   -0.310300
C      0.228800   -2.291200   -0.234600
C     -0.130000   -0.949600   -0.041900
C      0.892200    0.006200    0.084700
C      2.244700   -0.358400    0.011100
C      3.355600    0.615000    0.134400
C      3.248600    1.946300    0.329000
C     -1.534400   -0.561200    0.043100
C     -2.401100   -0.991100    1.086800
C     -3.759100   -0.577800    1.128100
N     -4.778700   -0.844600    2.018300
C     -5.938400   -0.205000    1.624300
C     -5.687500    0.496100    0.460500
C     -4.346500    0.248100    0.186300
C     -3.522600    0.695200   -0.876600
C     -3.817000    1.493000   -1.939600
N     -2.636400    1.572600   -2.649700
C     -1.644800    0.833200   -2.023600
C     -2.182600    0.270400   -0.884600
