21

C      6.142300   -0.512900   -0.390100
N      5.320900   -1.462000   -0.791600
C      4.069600   -0.975500   -0.524200
N      2.878300   -1.579400   -0.755100
C      1.799700   -0.848500   -0.382900
N      0.481500   -1.190800   -0.490200
C     -0.201600   -0.164800    0.001700
C     -1.667200   -0.086400    0.091400
C     -2.432600   -1.173800   -0.375200
C     -3.834300   -1.187100   -0.329700
C     -4.438700   -0.054500    0.207800
N     -5.739400    0.306400    0.419900
N     -5.836000    1.524900    0.977800
N     -4.602300    1.986400    1.142300
C     -3.729100    1.039100    0.679300
C     -2.326200    1.035700    0.626100
N      0.662700    0.828600    0.421900
C      1.935200    0.411100    0.185100
N      3.096600    1.051400    0.433600
C      4.143300    0.291400    0.049400
N      5.474500    0.567300    0.125900
