17

C      4.791400   -0.221400    0.412600
N      4.060100    0.563400    1.177800
C      2.772600    0.350100    0.766100
N      1.642800    0.925300    1.245500
C      0.503900    0.515500    0.637500
N     -0.775700    0.916300    0.904100
C     -1.529800    0.241200    0.056200
C     -3.064600    0.371600   -0.010200
C     -3.996800   -0.266700   -0.841900
N     -5.247000    0.126100   -0.580100
O     -5.131400    1.048600    0.452900
C     -3.822400    1.187700    0.785800
N     -0.777800   -0.581600   -0.748000
C      0.525100   -0.420300   -0.391500
N      1.621900   -1.018200   -0.900400
C      2.731500   -0.582300   -0.267700
N      4.030200   -0.934000   -0.477500
