17

C      4.902800    0.224400   -0.029900
N      4.224900   -0.572500   -0.830900
C      2.912500   -0.360400   -0.504800
N      1.817800   -0.945800   -1.048100
C      0.639700   -0.534500   -0.518900
N     -0.618100   -0.942100   -0.859700
C     -1.430400   -0.260600   -0.069400
C     -2.995700   -0.388100   -0.087300
C     -3.832100    0.330000    0.744100
S     -5.469100   -0.084000    0.425200
C     -4.933900   -1.176000   -0.783300
N     -3.634800   -1.249200   -0.959800
N     -0.729000    0.573400    0.769600
C      0.593500    0.413000    0.497900
N      1.653300    1.022000    1.069100
C      2.802200    0.583500    0.513200
N      4.083500    0.943500    0.801100
