28

C      6.959900    0.566900   -0.374600
N      6.888800   -0.381300    0.532500
C      5.562800   -0.720600    0.725700
C      4.639900   -0.034500   -0.043300
S      5.470400    1.096900   -1.035900
C      3.196400   -0.150900   -0.099600
C      2.292900    0.923200    0.062000
C      0.847000    0.775700    0.021300
C     -0.080000    1.830000    0.183300
C      0.220800    3.158900    0.402500
N     -0.969000    3.858900    0.503900
C     -2.040100    3.003700    0.353500
C     -1.486400    1.773600    0.159100
C     -2.105400    0.506800   -0.053700
C     -3.463100    0.155500   -0.125100
C     -4.707700    0.809800   -0.032000
C     -5.889800    0.070600   -0.164500
C     -5.847900   -1.302600   -0.387000
C     -4.628400   -1.977200   -0.483700
C     -3.454400   -1.224500   -0.349200
N     -2.135200   -1.636800   -0.402100
C     -1.262300   -0.585500   -0.222500
C      0.155500   -0.485400   -0.190900
C      1.089600   -1.520400   -0.351300
C      0.877000   -2.856600   -0.583800
O      2.069300   -3.514800   -0.694300
C      3.063600   -2.596100   -0.532800
C      2.519500   -1.357100   -0.305600
