26

C      5.729200   -2.194200    1.241500
N      5.782400   -2.290700   -0.068600
C      4.635100   -1.737100   -0.606200
C      3.721000   -1.231100    0.299700
S      4.324500   -1.459800    1.891500
C      2.440900   -0.590500    0.080600
C      1.204700   -1.059700    0.580600
C     -0.124700   -0.479200    0.366600
C     -1.309400   -1.127200    0.855700
C     -1.271600   -2.390500    1.517500
C     -2.405600   -3.057100    1.979200
C     -3.640800   -2.483200    1.793900
C     -3.725500   -1.249200    1.152100
C     -2.593000   -0.534300    0.668300
C     -2.719800    0.747700    0.035300
C     -3.976200    1.402800   -0.131200
C     -4.110700    2.678300   -0.675100
C     -2.979900    3.364200   -1.053400
C     -1.738000    2.745000   -0.922400
C     -1.565400    1.420100   -0.436900
C     -0.280600    0.760500   -0.357200
C      0.978700    1.169100   -0.934200
C      1.221700    2.150700   -1.871400
N      2.575900    2.196600   -2.116500
C      3.210800    1.205400   -1.416800
C      2.243000    0.526800   -0.714600
