24

C      5.669000   -0.242500   -0.995700
N      5.623300   -1.472000   -0.535900
C      4.319900   -1.770700   -0.180300
C      3.386900   -0.766600   -0.372700
S      4.183600    0.610400   -1.028400
C      1.978300   -0.798300   -0.095300
C      1.204200   -1.823800    0.427100
C     -0.096200   -1.317000    0.486600
C     -1.285200   -1.957100    0.945800
N     -1.295700   -3.199000    1.403500
S     -2.910300   -3.424000    1.790800
N     -3.545000   -1.933200    1.363500
C     -2.520600   -1.185500    0.895800
C     -2.595000    0.165400    0.414200
C     -3.822600    0.895300    0.378000
C     -3.916100    2.218500   -0.090000
C     -2.713700    2.818800   -0.537100
N     -2.597100    4.065900   -1.016800
S     -0.996800    4.280000   -1.397300
N     -0.371600    2.800500   -0.972400
C     -1.402000    2.066700   -0.508700
C     -1.350400    0.728000   -0.027200
C     -0.161300   -0.021800    0.023600
N      1.139000    0.276800   -0.331400
