29

C      6.353900    2.918600    2.703500
N      6.776100    1.676300    2.631500
C      5.787000    0.896800    2.061900
C      4.625600    1.555000    1.698400
S      4.776400    3.218700    2.105100
C      3.419300    1.048900    1.075900
C      2.108700    1.245700    1.555600
C      0.909400    0.726000    0.941800
C     -0.297900    1.038700    1.547900
C     -1.518000    0.598700    1.026600
C     -1.627100   -0.206600   -0.122700
C     -0.409600   -0.604700   -0.740100
C     -0.513800   -1.523000   -1.803000
C     -1.731600   -2.007400   -2.290400
C     -2.944700   -1.595200   -1.760500
C     -4.146800   -2.143600   -2.350200
C     -5.462300   -1.836300   -1.959200
C     -5.431200   -0.913500   -0.935300
C     -6.533800   -0.363100   -0.341400
O     -6.133200    0.538100    0.597400
C     -4.764800    0.552000    0.594500
C     -4.267800   -0.349100   -0.318100
C     -2.906900   -0.659800   -0.664700
C      0.866800   -0.091900   -0.243100
C      2.215300   -0.232900   -0.725700
C      2.670600   -0.819700   -1.883000
O      4.028800   -0.714400   -1.979400
C      4.462700   -0.025100   -0.890200
C      3.393800    0.300900   -0.095100
