29

Si    -4.417800    2.620800    2.832300
C     -5.636900    1.362600    2.182300
C     -5.021700    0.457100    1.398400
C     -5.698900   -0.643300    0.746300
C     -5.009300   -1.504100   -0.022400
C     -3.548200   -1.366200   -0.232300
C     -2.886300   -2.291900   -1.042600
C     -1.504900   -2.199900   -1.268500
C     -0.759400   -1.159700   -0.672700
C     -1.449800   -0.249400    0.132300
O     -0.579500    0.676700    0.619600
C      0.653300    0.380500    0.145400
C      1.790500    1.120000    0.443900
C      3.007000    0.695000   -0.114000
C      4.211400    1.478100    0.200400
N      4.927600    2.152000   -0.677400
C      5.989800    2.766300   -0.044500
C      6.082200    2.547200    1.311900
S      4.795800    1.537600    1.822600
C      3.058000   -0.443900   -0.965100
C      4.256300   -0.908800   -1.559500
C      4.288000   -2.033900   -2.385600
C      3.120100   -2.734300   -2.645100
C      1.917800   -2.311000   -2.080800
C      1.861800   -1.174900   -1.242200
C      0.623500   -0.745500   -0.665700
C     -2.828300   -0.308600    0.380600
C     -3.561000    0.652900    1.230700
C     -3.073100    1.719600    1.897600
