29

C      8.411200    0.071500   -1.283900
N      8.297900   -1.179700   -0.901000
C      6.970300   -1.448800   -0.627300
C      6.080000   -0.402300   -0.806500
S      6.960700    0.980100   -1.336300
C      4.633000   -0.357300   -0.586300
C      4.042100   -1.081200    0.451400
C      2.658400   -1.035900    0.642400
C      1.872200   -0.263500   -0.210100
N      2.422800    0.443900   -1.225100
C      3.769100    0.381200   -1.389400
C      0.420500   -0.187400   -0.073700
C     -0.429600   -1.279800    0.262000
C     -1.862200   -1.199100    0.404200
C     -2.625800   -0.015500    0.229600
C     -4.070000    0.069800    0.354300
C     -4.911500    0.541700   -0.684400
C     -6.320900    0.628100   -0.585100
C     -7.030200    0.246400    0.563500
C     -6.255000   -0.243800    1.640300
N     -6.740500   -0.662000    2.819200
S     -5.432700   -1.126600    3.727600
N     -4.193700   -0.830000    2.666900
C     -4.747800   -0.339800    1.542300
C     -1.777700    1.049800   -0.093200
C     -2.113200    2.365300   -0.295100
O     -0.992200    3.094700   -0.571900
C      0.073000    2.240100   -0.533700
C     -0.353400    0.969100   -0.238300
