32

C      7.861000    1.000000    1.295500
N      7.236700    2.123100    1.568500
C      5.900700    1.984500    1.237400
C      5.520600    0.760100    0.711700
S      6.903400   -0.262100    0.647700
C      4.207600    0.331900    0.297000
S      2.811400    0.844800    1.172400
C      1.728800   -0.028200    0.168100
C      0.312700    0.000800    0.411000
S     -0.761100    0.700900   -0.735200
C     -2.155400    0.337100    0.204500
C     -3.466800    0.717800   -0.286900
C     -4.234800    1.764800    0.277800
C     -5.529100    2.150200   -0.198800
C     -6.189500    1.526500   -1.279500
C     -5.435700    0.484900   -1.821800
C     -5.884200   -0.276800   -2.872200
S     -4.740900   -1.487700   -3.295500
C     -3.645100   -0.990300   -2.065700
C     -4.128200    0.084500   -1.354400
C     -1.802300   -0.268000    1.389900
N     -2.704100   -0.642400    2.344500
C     -2.081700   -1.231800    3.400000
C     -0.701700   -1.433200    3.511500
N      0.221000   -1.068100    2.581600
C     -0.375500   -0.471100    1.506600
C      2.408200   -0.690900   -0.828200
N      1.796400   -1.460500   -1.777600
C      2.702900   -1.986800   -2.641900
C      4.083600   -1.779200   -2.582300
N      4.721200   -1.023100   -1.650400
C      3.839300   -0.481300   -0.757400
