33

C      0.746800   -2.201800   -0.161500
O      1.895700   -2.929100   -0.303100
C      2.947900   -2.072200   -0.145500
C      2.481000   -0.804300    0.091200
C      3.227500    0.362600    0.277300
C      2.365900    1.467400    0.487000
C      0.927800    1.382300    0.500900
C      0.178100    0.183800    0.326100
C     -1.277200    0.121400    0.359000
C     -1.981300   -0.839500    1.078700
C     -3.378000   -0.817500    1.066400
C     -4.065900    0.159900    0.341900
C     -3.271000    1.085000   -0.332600
N     -1.914700    1.097400   -0.330900
C     -5.528000    0.229800    0.306500
C     -6.248600    1.423300    0.571100
C     -7.660600    1.522400    0.539500
C     -8.495800    0.436900    0.237600
C     -7.847600   -0.788900   -0.040200
N     -8.464500   -1.939000   -0.351400
S     -7.269500   -3.062700   -0.595200
N     -5.917700   -2.147600   -0.306800
C     -6.338500   -0.904800   -0.007500
C      1.050800   -0.891100    0.111500
C      4.669800    0.436200    0.262000
C      5.457800    0.621600    1.427800
C      6.889000    0.694300    1.433100
C      7.686400    0.595100    0.274000
C      6.912900    0.423200   -0.873500
C      7.468900    0.310700   -2.123700
S      6.258400    0.122800   -3.328800
C      4.988000    0.195600   -2.171500
C      5.471000    0.347100   -0.891500
