29

Si    -5.808500    2.202500    2.355300
C     -6.652300    1.001500    1.203700
C     -5.749200    0.272500    0.518200
C     -6.109000   -0.710700   -0.473000
C     -5.147400   -1.361800   -1.142100
C     -3.709800   -1.101300   -0.899700
C     -2.792400   -1.784100   -1.691800
C     -1.429800   -1.589700   -1.498500
C     -0.934600   -0.744600   -0.481600
C      0.474200   -0.558500   -0.255800
C      1.517200   -1.071400   -1.046000
N      2.845300   -0.891600   -0.828000
C      3.208400   -0.202900    0.274300
C      2.268900    0.362500    1.121000
C      0.902800    0.203300    0.834800
C     -0.076300    0.801400    1.607000
N     -1.399400    0.697500    1.370500
C     -1.858700   -0.062600    0.354300
C     -3.248400   -0.203700    0.107700
C     -4.325300    0.549400    0.837400
C     -4.175300    1.528400    1.757900
C      4.648200   -0.051800    0.466400
S      5.413100    0.184400    2.010900
C      7.006300    0.335900    1.329000
C      6.895300    0.164900   -0.002500
C      7.668900    0.200800   -1.193900
C      6.778900   -0.001700   -2.271500
N      5.471700   -0.188900   -1.825700
C      5.621200   -0.054900   -0.474300
