28

C      6.727800    0.993600    1.373100
O      5.767900    1.832400    1.870500
C      4.565200    1.445300    1.342400
C      4.747600    0.374500    0.504000
C      3.803000   -0.344000   -0.234200
C      4.425500   -1.402600   -0.945600
C      5.839100   -1.685200   -0.904400
C      6.779200   -0.944700   -0.150400
C      6.144500    0.080900    0.536600
C      2.387300   -0.025900   -0.269300
C      1.767600    1.185800   -0.535400
C      0.348400    1.105500   -0.465000
N     -0.546400    2.108000   -0.668300
C     -1.881400    1.862400   -0.561600
C     -2.424300    0.611500   -0.247000
C     -1.547400   -0.433600   -0.033100
N     -2.216800   -1.587700    0.264500
C     -3.576400   -1.338200    0.255500
C     -4.692300   -2.185800    0.496900
C     -6.012900   -1.685000    0.427400
C     -6.051400   -0.333100    0.109500
C     -7.180100    0.437600   -0.030800
O     -6.833800    1.730200   -0.348800
C     -5.461400    1.788800   -0.413200
C     -4.987700    0.545800   -0.137300
C     -3.673600    0.014900   -0.060400
C     -0.040100   -0.174300   -0.150300
S      1.226500   -1.258300    0.055000
