21

C      4.283800   -0.779300    2.292800
O      3.215700   -0.294100    2.997000
C      2.203200   -0.060900    2.105100
C      2.604600   -0.412200    0.841000
C      1.905900   -0.335500   -0.366900
C      2.726600   -0.742800   -1.448100
C      4.089100   -1.192600   -1.305200
C      4.776900   -1.275800   -0.071800
C      3.955900   -0.857000    0.966300
C      0.530700    0.105000   -0.506000
C     -0.021100    0.970700   -1.448900
C     -1.386700    1.011900   -1.127000
O     -2.513400    1.630800   -1.586400
C     -3.505600    1.176800   -0.760300
C     -4.852400    1.511100   -0.808300
C     -5.648100    0.894300    0.163300
C     -5.069800    0.016700    1.085000
N     -3.756300   -0.320100    1.144900
C     -3.025400    0.295100    0.193300
C     -1.655900    0.212300   -0.072700
N     -0.482500   -0.368100    0.315700
