33

C     -7.459800    0.837300    0.239700
O     -6.546500    1.658600    0.841800
C     -5.303000    1.133800    0.611100
C     -5.411400   -0.015600   -0.131000
C     -4.397500   -0.858000   -0.601100
C     -4.967700   -1.917600   -1.362100
C     -6.380600   -2.093500   -1.595000
C     -7.382200   -1.227200   -1.102600
C     -6.806400   -0.197400   -0.373300
C     -2.978900   -0.669600   -0.387500
C     -2.049500   -0.518400   -1.423800
N     -0.692000   -0.345400   -1.325900
C     -0.075600   -0.275200   -0.102400
C      1.358800   -0.075800   -0.071700
C      2.261100   -0.905300   -0.773700
C      3.664900   -0.730500   -0.756800
C      4.322700    0.302600   -0.047900
C      5.779300    0.454200   -0.043400
C      6.409900    1.663500   -0.362200
C      7.801000    1.757100   -0.361500
C      8.535200    0.628100   -0.044700
N      7.979500   -0.560800    0.264800
C      6.624700   -0.614600    0.262300
C      3.459600    1.193200    0.662000
N      3.833300    2.252200    1.403500
S      2.453700    2.946800    1.995500
N      1.303600    1.959700    1.333700
C      1.951500    1.003800    0.642900
C     -0.881100   -0.465700    1.052400
N     -0.478300   -0.531300    2.335100
S     -1.835500   -0.752300    3.255600
N     -2.994900   -0.830100    2.077000
C     -2.372700   -0.661300    0.895700
