29

C     -2.019900   -2.556100    0.922900
O     -0.943500   -3.338300    1.262400
C      0.188600   -2.583800    1.084500
C     -0.203200   -1.359600    0.645100
C     -1.605600   -1.297500    0.543100
C     -2.400900   -0.221100    0.122700
C     -1.614600    0.908100   -0.237500
C     -0.196800    0.882900   -0.146000
N      0.753000    1.838100   -0.436000
C      2.029100    1.360500   -0.187800
C      3.267100    1.993600   -0.342500
C      4.425900    1.265400   -0.013300
C      5.697300    1.838700   -0.144300
C      6.828700    1.103200    0.185900
C      6.649500   -0.188700    0.638800
N      5.441300   -0.776000    0.778600
C      4.347600   -0.061800    0.457900
C      3.097400   -0.653400    0.596100
C      1.917700    0.046600    0.276400
C      0.540700   -0.205700    0.285500
C     -3.851300   -0.243900    0.072000
C     -4.681400   -0.545400    1.162700
N     -6.054600   -0.588700    1.200400
C     -6.788900   -0.310200    0.085600
C     -6.098900    0.025900   -1.094800
N     -6.648800    0.334500   -2.280400
S     -5.388500    0.635800   -3.316300
N     -4.095000    0.404200   -2.305700
C     -4.590600    0.063000   -1.101000
