34

C      3.113700   -2.284100   -0.691500
O      2.040300   -3.048400   -1.033100
C      0.924500   -2.295900   -0.828600
C      1.254300   -1.075300   -0.284700
C      2.698500   -1.042400   -0.273900
C      3.505900    0.057400    0.035600
C      2.666600    1.182500    0.230100
C      1.207500    1.153700    0.185600
C      0.392800    2.291300    0.259400
C      0.811200    3.586700    0.436700
O     -0.264400    4.418900    0.463800
C     -1.374900    3.647900    0.286500
C     -1.027100    2.328300    0.105600
C     -1.890600    1.203900   -0.076100
C     -3.298000    1.199900   -0.395200
C     -4.004000    2.315100   -0.891800
N     -5.318300    2.363400   -1.210500
C     -5.997000    1.223200   -1.060100
C     -5.411900    0.049800   -0.618600
C     -4.034400    0.004100   -0.280500
C     -3.379300   -1.171400    0.202100
C     -4.089100   -2.371500    0.486200
C     -3.487900   -3.490300    1.058700
C     -2.154500   -3.434600    1.397000
C     -1.426700   -2.281700    1.105800
C     -1.973100   -1.155900    0.438400
C     -1.162300   -0.011900    0.118100
C      0.353400   -0.011000    0.032300
C      4.966700    0.101100    0.083500
N      5.646500   -1.046800    0.141200
C      6.969600   -0.913900    0.205500
N      7.642000    0.232400    0.217600
C      6.864900    1.308900    0.161600
N      5.535400    1.313000    0.098200
