33

C     -2.362700    0.597000   -2.792300
O     -1.328400    0.837800   -3.639800
C     -0.175700    0.689700   -2.927300
C     -0.443800    0.404400   -1.607900
C     -1.884200    0.285100   -1.543700
C     -2.650300   -0.077500   -0.433700
C     -1.778800   -0.373700    0.636200
C     -0.323000   -0.267900    0.581600
C      0.511700   -0.595400    1.662500
C      0.102000   -1.025000    2.901200
O      1.179200   -1.205600    3.708700
C      2.286500   -0.891000    2.978500
C      1.942200   -0.543000    1.692100
C      2.797000   -0.121200    0.628700
C      4.259400   -0.079800    0.584800
C      5.161300   -0.626900    1.519800
N      6.517100   -0.554800    1.472900
C      7.046000    0.086500    0.420800
C      6.281600    0.638500   -0.586700
C      4.885300    0.543000   -0.510400
C      4.104200    1.074000   -1.530500
C      2.710000    0.956500   -1.512700
C      1.987800    0.325300   -0.484300
C      0.489900    0.178600   -0.538500
C     -4.099600   -0.182200   -0.395100
N     -4.765900   -0.667500   -1.498300
C     -6.128300   -0.808400   -1.518500
C     -7.020000   -0.504400   -0.498100
C     -6.394200   -0.001300    0.656300
N     -7.029000    0.369100    1.779600
S     -5.860200    0.894800    2.832100
N     -4.496600    0.667000    1.916900
C     -4.897800    0.170100    0.730900
