30

C      3.353300    2.322500    1.087700
O      2.538300    3.316000    1.552500
C      1.247500    2.913400    1.357500
C      1.232100    1.673800    0.770900
C      2.598200    1.298200    0.572700
C      3.032000    0.095300    0.007200
C      1.904100   -0.715200   -0.319000
C      0.514700   -0.356000   -0.132100
C     -0.502200   -1.235300   -0.503000
C     -1.869900   -0.891100   -0.325600
C     -2.957000   -1.718300   -0.673500
C     -2.924900   -2.972500   -1.230100
O     -4.198700   -3.432100   -1.412400
C     -5.049800   -2.460900   -0.966600
C     -4.328900   -1.389300   -0.503600
C     -4.815700   -0.185100    0.039300
C     -6.174600    0.148900    0.210900
C     -6.463900    1.378200    0.761300
N     -5.521200    2.262000    1.137200
C     -4.219900    1.901500    0.955400
C     -3.749200    0.694600    0.411500
C     -2.310800    0.357000    0.236700
C     -1.264100    1.227700    0.606700
C      0.106700    0.888400    0.430000
C      4.414400   -0.308800   -0.216000
C      5.367500    0.527400   -0.796200
C      6.663700    0.052900   -0.987700
C      6.976500   -1.244100   -0.604700
C      5.972800   -2.018500   -0.051800
N      4.707500   -1.584800    0.141400
