27

Si    -6.045700    1.697900   -1.531000
C     -6.564600    0.547100   -0.168100
C     -5.499200   -0.045000    0.403200
C     -5.611400   -0.987800    1.489800
C     -4.502900   -1.535800    2.007000
C     -3.153700   -1.210500    1.504100
N     -2.169300   -1.881800    2.173900
C     -0.896200   -1.658400    1.794300
C     -0.572300   -0.792800    0.774600
C     -1.612500   -0.093000    0.077600
Si    -0.771800    1.016800   -1.272900
C      0.912800    0.414400   -0.749700
C      2.259400    0.559500   -1.058500
C      2.947800   -0.268400   -0.174900
N      2.005700   -0.899900    0.631300
C      0.758300   -0.476700    0.283100
C      4.354500   -0.521800   -0.030800
S      4.962700   -1.986200    0.672700
C      6.606500   -1.530500    0.465300
C      6.627800   -0.305300   -0.101800
C      7.685900    0.553800   -0.480900
C      7.226200    1.755600   -1.028100
S      5.483400    1.949600   -1.126900
C      5.399400    0.294400   -0.390800
C     -2.949000   -0.291300    0.435200
C     -4.170900    0.330400   -0.154700
C     -4.263400    1.223300   -1.163700
