33

C      2.079100    2.267200    0.449900
O      1.213600    3.320400    0.563400
C     -0.053800    2.808000    0.515800
C     -0.015900    1.436700    0.380600
C      1.349100    1.129700    0.274500
C      1.748200   -0.244800    0.139000
C      0.717400   -1.176200    0.303200
S      1.487300   -2.709200    0.487400
C      3.072300   -2.096900    0.259200
C      4.255000   -2.849500    0.375200
C      5.473600   -2.250100    0.074000
C      5.522100   -0.957200   -0.435700
C      6.750800   -0.413400   -0.844100
C      6.812700    0.837000   -1.455800
C      5.642800    1.545700   -1.692300
C      4.415100    1.024900   -1.275200
C      4.325900   -0.204600   -0.583300
C      3.073800   -0.746200   -0.100600
C     -0.679600   -0.814000    0.362200
C     -1.806100   -1.679900    0.417900
C     -1.776300   -3.056400    0.364400
S     -3.331800   -3.775300    0.468400
C     -4.098900   -2.252300    0.556500
C     -3.193400   -1.215600    0.499800
C     -3.592600    0.132200    0.532300
C     -2.491200    1.008500    0.477400
C     -1.117700    0.567400    0.394000
C     -4.970700    0.592000    0.607500
C     -5.811300    0.581100   -0.511200
C     -7.123100    1.037800   -0.403200
C     -7.558500    1.498900    0.827600
N     -6.783300    1.531800    1.931700
C     -5.513400    1.079600    1.795400
