29

C     -0.664500   -2.337100   -2.696100
O     -1.983700   -2.579500   -2.967200
C     -2.732200   -1.811200   -2.105500
C     -1.926100   -1.066100   -1.270600
C     -0.628300   -1.434400   -1.684200
C      0.478400   -0.855100   -1.035300
C      1.846900   -1.021700   -1.222700
C      2.450700   -0.187700   -0.288000
N      1.429700    0.439400    0.415500
C      0.189700    0.039800   -0.032000
C     -1.123200    0.400000    0.372400
N     -1.123000    1.300300    1.381800
C     -2.331700    1.698500    1.828700
C     -3.561500    1.259200    1.336900
C     -4.760000    1.749500    1.887100
C     -5.992800    1.320800    1.407000
C     -6.037000    0.398500    0.373100
C     -4.849000   -0.093800   -0.179300
C     -3.573600    0.316100    0.279600
C     -2.299800   -0.142800   -0.235500
C      3.840400    0.093400    0.026400
N      4.070700    0.993800    1.035700
C      5.346500    1.325000    1.406400
C      6.533800    0.843000    0.865500
C      6.341600   -0.085400   -0.175200
N      7.323100   -0.694900   -0.858900
S      6.581700   -1.683000   -1.966200
N      4.986500   -1.383700   -1.629900
C      4.958000   -0.487300   -0.625000
