27

C     -0.176700    1.620700   -2.959100
O      0.914400    1.963000   -3.708800
C      2.025100    1.539600   -3.032700
C      1.648900    0.932900   -1.862100
C      0.231400    0.985600   -1.814500
C     -0.557000    0.468600   -0.767700
C     -1.968100    0.504400   -0.690900
C     -2.610900   -0.053800    0.410600
C     -1.779000   -0.615400    1.374500
N     -0.419200   -0.661200    1.319700
C      0.231000   -0.129900    0.265000
C      1.682200   -0.178300    0.206100
C      2.425100   -0.777300    1.245600
C      3.816400   -0.863800    1.263500
N      4.426400   -1.456800    2.305300
C      5.775400   -1.529200    2.301300
C      6.570300   -1.029500    1.288600
C      5.941800   -0.417100    0.212200
C      4.543700   -0.324000    0.182700
C      3.873600    0.285600   -0.884000
C      2.464500    0.356000   -0.870200
C     -4.073500   -0.050300    0.546500
C     -4.810600    1.138600    0.411300
C     -6.202200    1.143200    0.541100
C     -6.881600   -0.042500    0.807000
C     -6.171300   -1.232100    0.943600
C     -4.779600   -1.235400    0.814800
