30

C      0.460300    3.090200    0.163200
O      1.674000    3.700500    0.170100
C      2.622000    2.717600    0.183200
C      2.037100    1.472300    0.185000
C      0.629900    1.729400    0.171900
C     -0.390500    0.766800    0.168500
C     -1.781400    1.033000    0.155500
C     -2.677900   -0.027200    0.153600
N     -2.218600   -1.296100    0.164200
C     -0.872700   -1.515000    0.176700
C      0.144800   -0.546100    0.180000
C      1.606300   -0.834900    0.193800
C      2.063500   -2.166000    0.204700
C      3.416000   -2.518500    0.217900
C      4.416500   -1.552100    0.221100
C      5.757900   -1.958000    0.234400
C      6.748500   -0.998200    0.237500
N      6.490700    0.316800    0.228300
C      5.180800    0.679100    0.215500
C      4.068400   -0.186700    0.210800
C      2.648700    0.178200    0.197000
C     -4.132400    0.190400    0.140400
N     -4.598100    1.498600    0.129900
C     -5.932700    1.799000    0.117200
C     -6.991500    0.903900    0.112800
C     -6.586300   -0.442600    0.123000
N     -7.425300   -1.490800    0.121100
S     -6.478100   -2.850700    0.135800
N     -4.970900   -2.172700    0.145200
C     -5.125000   -0.835000    0.137200
