29

Si    -6.382900    1.097200   -1.556700
C     -6.784000    0.131700   -0.019300
C     -5.665300   -0.331000    0.569300
C     -5.683900   -1.235200    1.693200
C     -4.531800   -1.768500    2.123800
C     -3.229000   -1.400400    1.537900
N     -2.191800   -2.048700    2.103400
C     -0.959200   -1.698900    1.686400
C     -0.657000   -0.678800    0.773700
C     -1.766100    0.015700    0.216700
C     -1.459000    1.131700   -0.592100
C     -0.150000    1.495100   -0.917600
C      0.933300    0.768200   -0.431400
C      2.243900    1.135200   -0.778900
C      3.319000    0.415200   -0.274400
N      3.135100   -0.636300    0.551500
C      1.860700   -0.970700    0.874100
C      0.697300   -0.321300    0.424700
C      4.726300    0.709300   -0.571400
S      5.215900    2.016800   -1.633700
C      6.908300    1.702000   -1.459900
C      7.039400    0.652800   -0.631500
O      8.208500    0.083200   -0.231700
C      7.710400   -0.915700    0.585000
C      6.313100   -0.942400    0.669600
C      5.872200    0.114300   -0.150500
C     -3.094300   -0.414500    0.533400
C     -4.381600    0.063800   -0.072000
C     -4.569500    0.730900   -1.232200
