29

C     -2.226700   -1.458200   -3.348100
O     -1.052400   -1.902600   -3.882300
C     -0.059200   -1.564900   -3.010500
C     -0.590100   -0.911100   -1.925600
C     -1.993700   -0.840400   -2.142800
C     -2.939200   -0.260600   -1.275400
C     -4.354200   -0.222100   -1.587100
C     -5.318300    0.310600   -0.726800
C     -4.750900    0.733500    0.467600
C     -5.551500    1.219500    1.473200
S     -4.640400    1.573100    2.874600
C     -3.177800    1.063100    2.127000
C     -3.334700    0.704800    0.805500
C     -2.276400    0.254600   -0.071700
C     -0.774100    0.258200    0.113300
C     -0.083300    0.904300    1.162200
C      1.315700    0.857900    1.324400
C      2.139700    0.173700    0.428400
C      1.515100   -0.436500   -0.661400
C      0.104000   -0.378600   -0.821700
C      3.593100    0.132800    0.592900
C      4.511800    0.417900   -0.431100
N      5.885300    0.398100   -0.377300
C      6.528400    0.073600    0.779900
C      5.745600   -0.238900    1.907500
N      6.201400   -0.580800    3.123400
S      4.863400   -0.852900    4.065100
N      3.652000   -0.541200    2.978100
C      4.239100   -0.208700    1.812600
