30

C      7.567100    0.994700    0.463500
O      7.031800    1.985300    1.253000
C      5.668000    1.810300    1.270000
C      5.384800    0.727500    0.500100
C      6.567800    0.188400   -0.025200
C      6.733100   -0.912200   -0.856300
C      5.503400   -1.529400   -1.180600
C      4.275800   -1.021000   -0.673200
N      2.974800   -1.440000   -0.843300
C      2.087600   -0.628700   -0.149000
C      2.838500    0.361500    0.502200
C      2.165500    1.320500    1.283400
C      0.769000    1.272800    1.396800
C      0.020400    0.285200    0.745500
C     -1.374700    0.226800    0.848700
C     -2.076100   -0.773700    0.172300
N     -1.458700   -1.723300   -0.573100
C     -0.111700   -1.658000   -0.668400
C      0.672300   -0.685200   -0.039200
C     -3.541200   -0.886800    0.262500
C     -4.075000   -2.012000    0.921300
C     -5.446600   -2.166200    1.090500
C     -6.314400   -1.196600    0.599500
C     -5.827200   -0.070900   -0.080300
C     -6.725500    0.886800   -0.580300
C     -6.271200    2.005000   -1.276700
C     -4.910800    2.176900   -1.489300
C     -4.004700    1.234900   -0.996000
C     -4.430100    0.095700   -0.269000
C      4.165900    0.083700    0.154900
