29

C     -5.904400    1.627100   -0.928900
O     -4.972700    2.622900   -0.951200
C     -3.750700    2.046000   -0.737500
C     -3.887100    0.699500   -0.506700
C     -5.277600    0.430800   -0.709900
C     -5.884000   -0.809300   -0.735000
C     -4.902300   -1.811800   -0.607800
C     -3.483800   -1.574800   -0.418900
C     -2.611700   -2.654100   -0.392900
N     -1.263500   -2.591400   -0.258900
C     -0.679000   -1.409600   -0.052700
C      0.734900   -1.452800    0.107100
C      1.585500   -0.359500    0.403600
C      3.016200   -0.448900    0.584700
C      3.629400   -1.172900    1.641100
C      5.045000   -1.269300    1.841800
C      6.001600   -0.658100    1.005400
C      5.402200    0.043000   -0.040200
C      6.135200    0.710400   -0.990000
S      5.114300    1.458500   -2.151900
C      3.688700    0.882100   -1.381100
C      3.977400    0.148900   -0.252400
C      0.816500    0.783200    0.591300
C      1.247400    2.008400    1.030600
O      0.174700    2.830300    1.207000
C     -0.944200    2.118800    0.876500
C     -0.602100    0.870400    0.420600
C     -1.452100   -0.203700    0.015900
C     -2.877000   -0.285000   -0.275900
