26

Si     2.631500   -2.355800    0.485500
C      1.270100   -0.989600    0.245100
C      1.854100    0.229900    0.132400
C      3.308900    0.208700    0.217300
C      3.971800   -1.038500    0.403900
C      5.393100   -1.198000    0.503400
C      6.298100   -0.107500    0.424300
C      5.624300    1.100000    0.241900
C      6.171100    2.349100    0.123500
O      5.171100    3.271300   -0.043300
C      3.976800    2.598400   -0.030500
C      4.208500    1.260600    0.142500
C     -0.179900   -1.302800    0.200400
C     -0.682800   -2.600400    0.327000
C     -2.056700   -2.854400    0.279600
C     -2.982000   -1.819300    0.103500
C     -4.347100   -2.115400    0.061600
C     -5.289500   -1.106900   -0.112300
C     -4.893400    0.225200   -0.249100
C     -5.870400    1.220400   -0.423300
C     -5.516100    2.559200   -0.563200
C     -4.177800    2.918000   -0.530300
C     -3.196500    1.936600   -0.357500
C     -3.515200    0.562000   -0.211300
C     -2.538100   -0.484700   -0.030900
C     -1.129800   -0.273800    0.023700
