30

Si    -6.141200   -2.192800   -2.266400
C     -7.054400   -1.306800   -0.901400
C     -6.204000   -0.610900   -0.123500
C     -6.621200    0.175200    1.012600
C     -5.700900    0.836600    1.730000
C     -4.263800    0.789500    1.397500
N     -3.497300    1.516800    2.232400
C     -2.174100    1.516600    1.984800
C     -1.538700    0.829800    0.942900
C     -0.116500    0.863400    0.723100
C      0.817300    1.582500    1.511400
C      2.191800    1.567300    1.237400
C      2.703400    0.830200    0.167800
C      1.794700    0.120100   -0.625200
C      0.411900    0.133300   -0.354100
C     -0.479600   -0.574100   -1.141500
N     -1.814200   -0.612000   -0.943400
C     -2.367700    0.073000    0.080400
C     -3.758400    0.049800    0.308200
C     -4.771000   -0.695400   -0.505500
C     -4.558500   -1.471000   -1.590500
C      4.130700    0.820400   -0.121000
C      4.899700    1.977100   -0.428600
C      6.310400    1.968000   -0.721600
C      7.110600    0.804000   -0.735000
C      6.347200   -0.312800   -0.425200
C      6.811200   -1.599400   -0.334800
N      5.735400   -2.388500    0.012900
C      4.598100   -1.617700    0.142900
C      4.948200   -0.317900   -0.136100
