29

C      7.085100   -0.342100   -0.060100
O      6.743000   -1.658400    0.158800
C      5.369600   -1.734700    0.186900
C      4.896200   -0.479000   -0.012800
C      5.953100    0.428600   -0.173100
C      5.896100    1.802600   -0.396900
C      4.566900    2.289800   -0.461300
C      3.480200    1.397400   -0.303200
O      2.145600    1.711500   -0.339400
C      1.457400    0.539400   -0.140100
C      2.330300   -0.539400    0.026200
N      1.917800   -1.814500    0.239100
C      0.566800   -1.967600    0.279400
C     -0.406100   -0.969500    0.127500
C     -1.829500   -1.247400    0.189000
C     -2.898100   -0.295400    0.045700
C     -4.337800   -0.616400    0.114500
C     -4.825600   -1.908500    0.331300
C     -6.202300   -2.137500    0.384300
C     -7.076300   -1.075700    0.220600
C     -6.531500    0.174000    0.010100
N     -5.201900    0.415900   -0.044500
C     -2.338300    0.981000   -0.169100
C     -2.970300    2.187100   -0.359000
O     -2.054600    3.186500   -0.532600
C     -0.815000    2.624200   -0.454900
C     -0.934300    1.277100   -0.233500
C      0.085600    0.342900   -0.092500
C      3.585700    0.038400   -0.082500
