32

C      5.331900   -2.632200    0.303000
S      3.624000   -2.680400    0.214600
C      3.474400   -0.953600    0.190000
C      2.174100   -0.328500    0.116300
C      1.829200    1.015000    0.086600
C      0.436700    1.044100    0.012900
C     -0.461600    2.139700   -0.043900
C     -0.069700    3.446200   -0.034500
S     -1.467000    4.438100   -0.116700
C     -2.521900    3.069100   -0.160700
C     -1.857100    1.857800   -0.115200
C     -2.498800    0.568000   -0.138000
C     -3.919900    0.300100   -0.210900
N     -4.832200    1.296100   -0.267700
C     -6.157000    1.018700   -0.335400
C     -6.678000   -0.255500   -0.352000
C     -5.782400   -1.307100   -0.295500
C     -4.399200   -1.037100   -0.224700
C     -3.447600   -2.104900   -0.165200
N     -3.726300   -3.422500   -0.168600
S     -2.281700   -4.223900   -0.085300
N     -1.231600   -2.944500   -0.040800
C     -1.977200   -1.822100   -0.089900
C     -1.498300   -0.482400   -0.076100
C     -0.105700   -0.219200   -0.004900
N      0.994300   -1.051700    0.060400
C      4.727100   -0.366500    0.249400
N      4.953300    0.982700    0.247900
C      6.283200    1.260800    0.314300
C      7.305200    0.307300    0.376700
N      7.119100   -1.040200    0.380300
C      5.792600   -1.342900    0.314300
