24

C     -5.026800    0.967200   -2.511200
S     -3.734300    0.561300   -3.568100
C     -2.684900    0.177700   -2.259900
C     -3.291500    0.378100   -1.040800
C     -2.695000    0.152700    0.212400
C     -3.589500    0.385100    1.283600
C     -4.943300    0.820500    1.112400
C     -5.541400    1.061600   -0.143300
C     -4.660100    0.816100   -1.196900
C     -1.317400   -0.266700    0.405800
C     -0.827700   -1.364600    1.138100
C      0.581500   -1.295800    1.027700
N      1.813900   -1.826400    1.329600
C      2.800700   -1.051300    0.770900
C      4.168400   -0.792400    0.540600
C      5.396600   -1.358000    0.865600
N      6.543500   -0.776500    0.429700
C      6.473900    0.351600   -0.319400
C      5.305000    0.992400   -0.697200
C      4.147000    0.379800   -0.239800
O      2.870200    0.841700   -0.493800
C      2.137500   -0.069800    0.145300
C      0.828900   -0.202900    0.286200
N     -0.252300    0.467400   -0.109200
