30

C      2.453200    0.909400   -2.273700
S      1.444300    0.818800   -3.649600
C      0.063300    0.476100   -2.688100
C      0.325700    0.499600   -1.336400
C      1.753500    0.679400   -1.110500
C      2.352800    0.632000    0.150800
C      1.417100    0.339900    1.161800
C      0.029600    0.156800    0.976800
N     -0.627400   -0.143800    2.090900
C     -1.964500   -0.338300    2.029200
C     -2.776400   -0.204900    0.900100
C     -4.208700   -0.397400    0.939100
C     -4.942600   -0.805500    2.085400
C     -6.331000   -0.973900    2.065600
C     -7.038500   -0.738400    0.897800
C     -6.355700   -0.335300   -0.245500
C     -4.960000   -0.165900   -0.233900
C     -4.308700    0.252800   -1.388800
C     -2.922000    0.416500   -1.410000
C     -2.101700    0.156300   -0.292300
C     -0.644900    0.275500   -0.283000
C      3.773700    0.810100    0.398400
S      4.296800    2.179900    1.308100
C      5.950700    1.738900    1.190100
C      6.106600    0.576700    0.480500
N      7.322400    0.010000    0.244400
C      7.184400   -1.136200   -0.478100
C      5.968000   -1.667100   -0.925500
N      4.743000   -1.116200   -0.705200
C      4.849800    0.034700    0.021300
