33

C      4.387900   -2.090300   -0.660900
S      3.923400   -3.732400   -0.878300
C      2.257200   -3.342600   -0.759900
C      2.102900   -2.002000   -0.562400
C      3.319600   -1.228700   -0.497600
C      3.445000    0.172700   -0.301800
C      2.174700    0.797600   -0.164700
C      0.981300    0.061000   -0.225300
O     -0.262500    0.604900   -0.100700
C     -1.194300   -0.401300   -0.209600
C     -0.499000   -1.588200   -0.405500
C     -1.268100   -2.779700   -0.547000
N     -0.745000   -3.977500   -0.738000
S     -2.075500   -4.979200   -0.831300
N     -3.298300   -3.864800   -0.625900
C     -2.716000   -2.654300   -0.474700
C     -3.390500   -1.408500   -0.271100
C     -4.791700   -1.359400   -0.211500
C     -5.438300   -0.144800   -0.013400
C     -4.716400    1.046400    0.129800
C     -5.423400    2.244500    0.327700
C     -4.759200    3.457900    0.476300
C     -3.375600    3.486400    0.428400
C     -2.659300    2.301200    0.232000
C     -3.294700    1.041600    0.075700
C     -2.616500   -0.221300   -0.130400
C      0.862900   -1.299400   -0.415400
C      4.688400    0.965500   -0.235200
N      5.871000    0.363900   -0.365900
C      6.931900    1.165700   -0.291100
N      6.908900    2.479900   -0.102100
C      5.683600    2.977300    0.015300
N      4.548700    2.284100   -0.041100
