32

Si    -7.174500    0.780700   -0.851300
C     -7.090900    0.130800    0.894800
C     -5.816000   -0.103500    1.260500
C     -5.429500   -0.511200    2.604800
C     -4.127900   -0.628200    2.926300
C     -3.156900   -0.399500    1.904200
O     -1.800500   -0.475700    2.098600
C     -1.191000   -0.277300    0.890800
C     -2.175000   -0.089200   -0.066500
C     -1.699700    0.022200   -1.409300
C     -2.352500    0.069400   -2.604500
N     -1.364400    0.157900   -3.565400
C     -0.116500    0.117900   -2.973600
C     -0.298900    0.008800   -1.612300
C      0.730500   -0.122900   -0.649800
C      2.125800   -0.134900   -0.849200
C      2.959800   -0.302400    0.255700
N      2.474300   -0.463100    1.515500
C      1.129000   -0.454000    1.690800
C      0.213700   -0.285200    0.655500
C      4.413100   -0.345200    0.114900
C      5.093900   -1.171600   -0.825100
C      6.517000   -1.224400   -0.986900
C      7.421100   -0.454100   -0.229700
C      6.762500    0.358700    0.691800
C      7.442200    1.202500    1.535400
S      6.361600    2.081700    2.539700
C      4.982800    1.327200    1.842300
C      5.328600    0.417800    0.868100
C     -3.423300   -0.072200    0.562100
C     -4.791500    0.160600    0.200900
C     -5.308000    0.681900   -0.926800
