32

C     -1.269300   -3.391100   -0.450000
S     -2.819800   -4.142200   -0.374300
C     -3.630800   -2.632200   -0.117500
C     -2.738800   -1.595300   -0.091800
C     -1.404500   -2.040500   -0.281200
C     -0.290700   -1.159300   -0.295300
C      1.077300   -1.349600   -0.461900
C      1.614700   -0.071000   -0.364100
O      0.618700    0.861100   -0.165900
C     -0.550100    0.169900   -0.118700
C     -1.989700    0.668900    0.086300
O     -2.410200    1.949600    0.272900
C     -3.772900    1.895200    0.409400
C     -4.590900    3.013200    0.620300
C     -5.974500    2.824200    0.743700
C     -6.452200    1.497300    0.644900
N     -7.743300    1.126300    0.738200
S     -7.782200   -0.535700    0.556400
N     -6.153700   -0.859400    0.349700
C     -5.593000    0.334500    0.424600
C     -4.190000    0.575900    0.305000
C     -3.061300   -0.204500    0.099400
C      2.969300    0.469800   -0.455100
C      3.181000    1.536900   -1.346700
C      4.450200    2.072900   -1.533000
C      5.529300    1.549200   -0.828700
C      5.354700    0.496000    0.081300
C      6.461300   -0.002900    0.788800
C      6.318300   -1.033600    1.715400
C      5.063100   -1.574500    1.952800
C      3.953200   -1.091300    1.254900
C      4.063900   -0.057200    0.291500
