28

C      1.049200   -3.614600   -0.117900
S      2.679400   -4.190900   -0.169200
C      3.341000   -2.588900   -0.142400
C      2.333700   -1.664400   -0.096000
C      1.045300   -2.247600   -0.082400
C     -0.145500   -1.468800   -0.035700
C     -1.499000   -1.793100   -0.013900
C     -2.154200   -0.563100    0.032600
O     -1.232600    0.460500    0.038500
C     -0.002300   -0.109500   -0.003700
C      1.395500    0.532400   -0.018200
O      1.745500    1.843600    0.008000
C      3.115300    1.875000   -0.021700
C      3.877200    3.032700   -0.008700
C      5.240500    2.804800   -0.045000
N      5.823200    1.583300   -0.089600
C      5.044700    0.469700   -0.101100
C      3.655300    0.584500   -0.067200
C      2.528000   -0.245000   -0.063500
C     -3.557500   -0.187200    0.073600
C     -4.599600   -1.126300    0.072500
N     -5.954700   -0.898100    0.108500
C     -6.439500    0.374500    0.152400
C     -5.515600    1.437400    0.159400
N     -5.816500    2.745500    0.200000
S     -4.370600    3.556900    0.188900
N     -3.309200    2.290100    0.132400
C     -4.028800    1.152800    0.118900
