24

C      1.579300   -3.050400   -0.682700
S      0.212700   -3.943800   -1.183300
C     -0.807700   -2.585100   -0.980300
C     -0.160100   -1.490900   -0.445800
C      1.267300   -1.744400   -0.364400
C      2.250100   -0.784600   -0.013900
C      3.654200   -1.084300    0.091100
C      4.623500   -0.131800    0.403400
C      4.142000    1.171100    0.615000
N      4.922100    2.217500    0.925800
S      3.921200    3.521800    1.088200
N      2.461600    2.818300    0.770700
C      2.666600    1.513500    0.510700
C      1.651100    0.518400    0.183300
C      0.184300    0.779200    0.075600
C     -0.369400    2.060200    0.181000
N     -1.681200    2.399000    0.123500
C     -2.583900    1.428900    0.023900
C     -3.918700    1.813200    0.048600
C     -4.955300    0.884900    0.019600
C     -4.647600   -0.462200   -0.009500
C     -3.308600   -0.860000   -0.045500
C     -2.232000    0.070900   -0.079600
C     -0.803300   -0.238800   -0.153800
