33

C     -6.751500    1.275400   -0.574200
S     -5.949700    2.099800   -1.844100
C     -4.407200    1.578400   -1.293100
C     -4.489700    0.692700   -0.241000
C     -5.853900    0.619200    0.232400
C     -6.264000   -0.009000    1.397700
C     -5.157400   -0.477900    2.127100
C     -3.786000   -0.403000    1.694400
C     -2.801000   -0.814200    2.584700
C     -1.435300   -0.725800    2.277700
C     -0.938500   -0.332000    1.018700
C      0.517100   -0.269900    0.757500
C      1.505900   -0.422900    1.742600
N      2.856700   -0.369400    1.567600
C      3.340800   -0.157600    0.324100
C      2.475300    0.024400   -0.742900
C      1.073400   -0.035900   -0.528000
C      0.074600    0.069300   -1.525200
C      0.359200    0.166200   -2.870300
S     -1.057300    0.097300   -3.828300
C     -2.049400   -0.070400   -2.441800
C     -1.346100    0.056100   -1.263000
C     -1.944900   -0.030700    0.034900
C     -3.359500    0.090900    0.419100
C      4.799300   -0.111200    0.232100
C      5.627400    0.254600    1.309400
N      7.001200    0.339200    1.352800
C      7.745300    0.031300    0.256300
C      7.067800   -0.372900   -0.908800
N      7.635700   -0.719700   -2.075100
S      6.397600   -1.126100   -3.097800
N      5.089400   -0.863800   -2.115700
C      5.556600   -0.447300   -0.922400
