29

Si    -6.496700    0.696500   -2.295700
C     -6.790800    0.353200   -0.486300
C     -5.626500    0.172200    0.166000
C     -5.545800   -0.210800    1.569400
C     -4.350000   -0.464600    2.131900
C     -3.178600   -0.295400    1.332700
O     -1.901500   -0.524100    1.779400
C     -1.034900   -0.188900    0.774500
C     -1.781700    0.262200   -0.302500
C     -1.017600    0.749600   -1.401700
C     -1.356400    1.374800   -2.560400
O     -0.203200    1.644600   -3.253700
C      0.847700    1.206100   -2.492400
C      0.389700    0.660400   -1.315500
C      1.182200    0.157100   -0.259000
C      2.592900    0.071300   -0.190600
C      3.224300   -0.435700    0.958200
C      2.420700   -0.851100    2.037600
C      1.023400   -0.772400    1.986700
C      0.389700   -0.271500    0.839500
C      4.691700   -0.527300    1.032500
C      5.423500   -1.221900    0.054900
C      6.816600   -1.308800    0.124300
C      7.501600   -0.700800    1.173100
C      6.795300   -0.007100    2.152500
C      5.402100    0.077900    2.082400
C     -3.140800    0.129500   -0.007600
C     -4.396000    0.322600   -0.674000
C     -4.657600    0.533800   -1.976700
