33

C     -7.105200   -0.859900    0.438300
S     -6.476400   -2.358300   -0.095900
C     -4.858400   -1.780500   -0.006100
C     -4.777400   -0.447400    0.325400
C     -6.096500    0.043600    0.666700
C     -6.370200    1.289900    1.200800
C     -5.177600    1.992900    1.443500
C     -3.867100    1.551400    1.134300
N     -2.910100    2.385500    1.521900
C     -1.614300    2.065900    1.292700
C     -1.125600    0.957300    0.599900
C      0.308700    0.759800    0.398300
C      1.316000    1.570000    0.976800
C      2.689500    1.354200    0.764100
C      3.161400    0.319200   -0.051200
C      2.191000   -0.504700   -0.628700
C      0.802900   -0.291200   -0.410400
C     -0.170900   -1.124600   -1.034300
N      0.097000   -2.138600   -1.878700
S     -1.350000   -2.731600   -2.398400
N     -2.377100   -1.759800   -1.552900
C     -1.646600   -0.928000   -0.790800
C     -2.152500    0.087400    0.108100
C     -3.558700    0.320900    0.471700
C      4.603000    0.123700   -0.244800
N      5.445300    0.479100    0.789500
C      6.803500    0.329700    0.702300
C      7.527100   -0.162200   -0.375800
C      6.721000   -0.523700   -1.469900
N      7.177000   -1.014100   -2.633600
S      5.848100   -1.263700   -3.593700
N      4.637800   -0.763600   -2.579100
C      5.218900   -0.383000   -1.425600
