31

C     -6.829700    1.738600    0.781700
S     -5.937200    2.988100    1.565400
C     -4.425100    2.241100    1.200300
C     -4.639800    1.085200    0.506500
C     -6.003100    0.773200    0.252900
C     -6.521900   -0.328900   -0.424900
C     -5.536800   -1.217200   -0.900200
C     -4.152200   -0.975000   -0.686800
S     -2.815300   -1.936400   -1.187600
C     -1.660100   -0.820400   -0.468800
C     -2.296300    0.254800    0.135100
S     -1.145100    1.371100    0.855000
C      0.191400    0.410100    0.353000
C      1.572700    0.656100    0.568200
C      2.585100   -0.223100    0.101000
C      4.002300    0.018300    0.328900
N      4.774900   -0.988300    0.861400
C      6.108400   -0.811600    1.119900
C      6.862500    0.335700    0.904700
C      6.118300    1.398900    0.362100
N      6.607200    2.612500    0.061800
S      5.340800    3.494500   -0.547500
N      4.115300    2.381400   -0.452300
C      4.648500    1.256800    0.061500
C      2.064100   -1.340700   -0.586000
C      2.857100   -2.320000   -1.152200
S      1.943500   -3.552300   -1.932800
C      0.451800   -2.791600   -1.539600
C      0.689300   -1.643900   -0.838700
C     -0.260000   -0.697200   -0.324500
C     -3.694900    0.132700   -0.008600
