14

C     -0.158700   -1.872900   -0.134200
C     -0.119500   -0.359500   -0.028500
N     -1.159000    0.422800    0.038500
N     -2.402800   -0.106000    0.188900
C     -3.538000    0.390000   -0.395500
N     -4.590400   -0.299600   -0.017600
N     -4.162400   -1.235200    0.893700
C     -2.865700   -1.077900    1.038900
C      1.228700    0.289000   -0.047200
C      1.363800    1.623700   -0.439200
C      2.624300    2.218000   -0.442700
C      3.711400    1.456700   -0.046700
N      3.618300    0.168400    0.348400
C      2.380100   -0.383900    0.345000
