21

C      3.037800   -1.023500   -1.212800
C      2.708100   -0.046300   -0.098500
N      1.499300    0.356200    0.193800
N      0.416200   -0.226100   -0.416700
C      0.113400   -1.567500   -0.161000
O      0.876200   -2.368200    0.377800
C     -1.232700   -2.010700   -0.691100
N     -2.327800   -1.266600   -0.107200
C     -2.801900   -1.440900    1.162900
N     -3.788600   -0.615700    1.425400
C     -3.965000    0.117700    0.278700
C     -4.883300    1.142100    0.008300
C     -4.864700    1.748200   -1.253200
C     -3.951400    1.341000   -2.227200
C     -3.026600    0.320200   -1.976500
C     -3.060600   -0.271400   -0.708000
C      3.797100    0.521100    0.697300
C      3.703000    1.510300    1.664100
C      4.957000    1.822700    2.263700
C      5.976600    1.059500    1.743200
S      5.418700   -0.018700    0.541900
