15

C      5.079600   -0.136200    0.439000
C      3.941700    0.207200   -0.479300
N      4.164700    0.927400   -1.542800
O      3.003300    1.195900   -2.273600
C      2.582600   -0.334300   -0.059400
O      2.228900   -0.237300    1.105600
N      1.871100   -0.937400   -1.070400
C      0.499000   -1.364300   -0.878800
C     -0.487100   -0.178800   -0.863100
N     -1.904800   -0.586500   -0.882800
C     -2.335900   -1.280800    0.341700
C     -2.447900   -0.374400    1.570400
C     -3.346400    0.825600    1.291100
C     -2.923600    1.539700    0.011600
C     -2.791400    0.557800   -1.155700
