15

C      3.219300   -1.398100    2.538500
C      1.860900   -1.231600    1.902200
O      1.058500   -2.167900    1.884700
C      1.513300    0.101300    1.322400
C      2.170300    1.255200    1.820500
N      2.703400    2.195300    2.243400
C      0.600100    0.183000    0.331500
N      0.149500    1.374400   -0.270800
C     -1.018900    1.035000   -0.985900
C     -1.875200    1.835300   -1.704500
C     -2.923900    1.202300   -2.380700
C     -3.074400   -0.200800   -2.343900
C     -2.179500   -1.005900   -1.630600
C     -1.169300   -0.370700   -0.949000
N     -0.094600   -0.906000   -0.220600
