23

C      5.713800    0.417000    2.493400
C      4.447000    1.101600    2.049900
O      3.980400    2.044300    2.685600
C      3.762400    0.625100    0.810300
C      4.345700   -0.315700   -0.042500
C      3.671900   -0.722500   -1.194600
C      2.409700   -0.203300   -1.502300
C      1.801300    0.727300   -0.653300
N      0.516200    1.284100   -0.916800
N      0.105200    2.397400   -0.245600
N     -1.069000    2.737600   -0.752000
N     -1.463500    1.855500   -1.713800
C     -0.511600    0.950900   -1.794000
S     -0.673200   -0.460700   -2.784500
C     -1.110300   -1.765500   -1.599300
C     -1.580500   -1.247800   -0.254600
O     -0.770400   -1.133700    0.669700
N     -2.900700   -0.891700   -0.116700
C     -3.379000   -0.262900    1.104700
C     -4.709500    0.366400    0.716500
C     -5.212500   -0.553400   -0.388600
C     -3.936200   -0.904400   -1.140600
C      2.497700    1.148800    0.496800
