19

C     -4.433600    0.299000   -1.853700
C     -2.919800    0.265100   -1.846900
O     -2.317800    0.571400   -2.880600
N     -2.299300   -0.140400   -0.657700
C     -3.018800   -0.885900    0.273700
C     -2.791400   -0.549600    1.732500
O     -3.821500   -1.769000   -0.032100
C     -0.889200    0.104300   -0.474800
C     -0.265300    1.233300   -1.035600
C      1.104700    1.477800   -0.863400
C      1.887200    0.592000   -0.129100
N      3.246600    0.804800    0.084500
C      3.970300   -0.120500    0.792400
C      5.454500    0.125000    0.922600
N      3.486700   -1.185500    1.348100
C      2.137200   -1.441700    1.237200
O      1.600900   -2.401500    1.781600
C      1.278800   -0.527100    0.438600
C     -0.090100   -0.780300    0.263900
