13

C     -4.502500    0.996600    0.753400
C     -3.275900    1.137200   -0.107500
O     -3.229500    1.925000   -1.047300
N     -2.229900    0.322800    0.274200
C     -0.959000    0.364900   -0.382500
C     -0.705400   -0.467100   -1.609300
C     -0.015700   -0.819000   -0.317000
C      1.476100   -0.610000   -0.121500
C      2.211200    0.409500   -0.754300
C      3.585200    0.567900   -0.544000
C      4.263700   -0.294600    0.309800
C      3.568100   -1.312900    0.951300
C      2.194600   -1.464500    0.736000
