24

C      8.401600   -0.274200   -0.649700
C      6.916800   -0.512000   -0.773700
O      6.484300   -1.400000   -1.498900
N      6.179100    0.343600    0.024800
C      4.775100    0.397000    0.160900
C      4.265200    1.348400    1.050500
C      2.886300    1.483700    1.258400
C      1.992300    0.650500    0.561800
N      0.612100    0.670900    0.665800
C      0.097900   -0.240500   -0.124400
N     -1.257100   -0.416400   -0.200000
C     -1.953600   -1.320900   -0.966800
O     -1.488500   -2.155700   -1.737500
C     -3.470300   -1.208400   -0.780900
O     -3.803000   -0.185800    0.155000
C     -5.132800    0.021300    0.398400
C     -5.406200    1.043200    1.312100
C     -6.722300    1.360100    1.651900
C     -7.776200    0.654200    1.077500
C     -7.511300   -0.366200    0.165900
C     -6.192500   -0.684000   -0.174200
S      1.203300   -1.163100   -1.027200
C      2.511800   -0.293700   -0.322900
C      3.896100   -0.437900   -0.538900
