28

Si    -6.508700    0.222500    1.352100
C     -6.336600    0.145600   -0.506500
C     -5.040200    0.101200   -0.869000
C     -4.595900    0.036500   -2.254900
C     -3.282200   -0.005400   -2.543400
C     -2.352000    0.015500   -1.459900
O     -0.984800   -0.022300   -1.613900
C     -0.451000    0.013900   -0.372300
C      1.025000   -0.005100    0.015800
N      2.157300   -0.060900   -0.737300
C      3.271200   -0.053900    0.098900
C      2.793300    0.008500    1.413500
C      1.405500    0.037100    1.321100
C      0.381300    0.099500    2.307300
N      0.668600    0.143500    3.603900
S     -0.852700    0.207100    4.328300
N     -1.855900    0.177400    2.972200
C     -1.012700    0.117800    1.947900
C     -1.441600    0.074100    0.577500
C     -2.673000    0.076700   -0.087300
C     -4.063400    0.122900    0.265300
C     -4.645900    0.184000    1.476500
C      4.656200   -0.104700   -0.379100
C      5.006900   -0.165300   -1.724200
C      6.358500   -0.209800   -2.063800
C      7.316100   -0.192800   -1.058000
C      6.880400   -0.131600    0.253400
N      5.578900   -0.087500    0.610800
