20

C      0.565800   -3.049100    1.269700
C      0.029600   -1.870500    0.453600
C     -1.063800   -1.081300    1.222300
O     -1.506000   -1.516400    2.291800
N     -1.637000    0.041600    0.622500
C     -1.379000    0.472300   -0.751400
C     -2.406200    1.482000   -1.267300
C     -3.824900    1.063600   -0.895100
C     -3.979200    0.780400    0.603700
C     -2.649800    0.795400    1.354600
N      1.126500   -1.035800   -0.059400
N      1.429800   -1.199700   -1.421400
C      2.460200   -0.576800   -1.910100
N      3.261400    0.224300   -1.114100
C      4.367200    0.953400   -1.474900
C      4.841500    1.588600   -0.345600
C      3.992400    1.226700    0.729800
C      3.024900    0.383400    0.221000
C      1.916200   -0.291200    0.841100
O      1.681900   -0.207200    2.041800
