19

C     -3.749200   -0.976200   -0.740800
C     -3.004600    0.158300   -0.004600
C     -3.686000    0.416400    1.356600
C     -3.176800    1.440400   -0.850700
C     -1.532700   -0.247600    0.220600
C     -0.461200    0.502000   -0.309700
C      0.829400    0.074500   -0.064700
C      1.089900   -1.110500    0.714500
C      2.526400   -1.287600    0.788700
N      3.483000   -2.047800    1.264700
C      4.668000   -1.420200    0.812000
C      4.395100   -0.284300    0.065800
N      3.047800   -0.260800    0.090900
C      2.146700    0.616100   -0.464300
C      2.669700    1.639000   -1.159500
C      4.150400    1.704000   -1.247500
C      4.974600    0.789400   -0.664900
C      0.067300   -1.857800    1.241700
C     -1.239300   -1.417900    0.989000
