21

C     -3.194000   -0.932200    0.286100
C     -2.502600    0.416500   -0.015500
C     -3.614500    1.495500    0.072200
C     -2.004600    0.438400   -1.478300
C     -1.324500    0.653000    0.966000
C     -1.332800    1.767600    1.835100
C     -0.288600    2.006600    2.730100
Br    -0.352100    3.514100    3.869800
C      0.796000    1.147100    2.788500
C      0.836900    0.037600    1.945900
C     -0.206900   -0.220400    1.042300
O     -0.203500   -1.287200    0.182400
C      0.815800   -2.271300    0.283000
C      2.129200   -1.897600   -0.407600
O      3.196300   -2.436900   -0.114200
N      1.985800   -0.948200   -1.393500
C      3.043600   -0.496700   -2.134300
N      2.984100    0.425300   -3.064800
C      4.279900    0.513000   -3.494300
N      5.144500   -0.302900   -2.886000
N      4.334600   -0.939000   -2.020700
