19

C      3.912300   -0.593100   -1.275100
C      3.631300    0.319000   -0.070200
C      4.764200    0.125000    0.955000
C      3.622700    1.791200   -0.510500
N      2.361800   -0.040700    0.581700
C      1.120200   -0.003200   -0.030900
O      0.947000    0.305700   -1.205100
C     -0.019500   -0.402000    0.908000
O     -1.290600   -0.198400    0.297700
C     -2.329200   -0.612200    1.054300
O     -2.272500   -1.169600    2.136900
C     -3.581600   -0.380500    0.319800
C     -4.385800   -1.499200    0.061000
C     -5.581200   -1.337800   -0.635500
Br    -6.664800   -2.842600   -0.999600
C     -5.985500   -0.074600   -1.065700
C     -5.191100    1.041400   -0.787700
C     -3.988600    0.894500   -0.088500
Cl    -3.096300    2.325300    0.282800
