15

C     -3.935500   -0.183500    0.647100
C     -2.436200   -0.136200    0.281800
C     -2.330200   -0.131900   -1.251100
C     -1.852800    1.154200    0.878900
N     -1.802100   -1.341400    0.859900
C     -0.524900   -1.795000    0.921300
S     -0.271300   -3.240900    1.719100
N      0.440700   -1.028300    0.356500
C      1.855100   -1.357300    0.272700
C      2.638600   -0.203800   -0.278900
C      2.860500    0.951800    0.476600
C      3.576600    2.010100   -0.074100
C      4.045000    1.879500   -1.370500
N      3.845000    0.783700   -2.133600
C      3.149300   -0.230900   -1.571900
