17

C      3.316200   -0.031100   -1.857100
C      2.977700    0.696100   -0.547400
C      3.349600    2.181100   -0.736800
C      3.793500    0.168100    0.641900
O      1.567100    0.732700   -0.280900
C      0.869300   -0.425500   -0.055300
N      1.484800   -1.613700   -0.078100
C      0.705800   -2.689300    0.156400
C     -0.643500   -2.612800    0.408000
Br    -1.650100   -4.173500    0.724600
C     -1.173100   -1.337700    0.407500
O     -2.521700   -1.211800    0.655000
C     -3.155600    0.080200    0.673000
C     -4.631100   -0.246400    0.980800
C     -3.115600    0.778900   -0.693700
C     -2.638200    0.978200    1.806000
N     -0.436000   -0.238000    0.179000
