28

Si    -6.217500   -0.304300   -1.376400
C     -6.215900    0.903400    0.046200
C     -4.965800    1.104000    0.505600
C     -4.632500    2.099900    1.515500
C     -3.344300    2.340200    1.822700
C     -2.341900    1.545300    1.189800
O     -1.000200    1.705900    1.362800
C     -0.372700    0.727600    0.662600
C      0.995900    0.577100    0.552700
Si     2.286300    1.679500    1.246800
C      3.572700    0.538000    0.441600
C      3.002100   -0.497900   -0.210300
C      1.516900   -0.513800   -0.170400
C      0.657800   -1.486100   -0.716000
C      1.130700   -2.637300   -1.385400
C      0.260900   -3.627100   -1.844900
C     -1.102700   -3.503800   -1.625800
C     -1.603300   -2.372100   -0.981900
C     -0.756100   -1.325100   -0.561700
C     -1.288400   -0.142600    0.064900
C     -2.553600    0.494200    0.289600
C     -3.902600    0.294000   -0.168300
C     -4.356600   -0.421300   -1.215100
C      4.962900    0.761700    0.556600
C      5.773600    1.274400    1.554000
C      7.108700    1.270700    1.081300
C      7.086300    0.765300   -0.197000
N      5.786100    0.462000   -0.507100
