21

C      1.207400    1.744500    2.063100
C      1.059800    2.122900    0.585000
C      2.079200    3.212900    0.237200
C      1.225500    0.905600   -0.355700
O      2.500200    0.301800   -0.116000
C      2.895900   -0.593700   -1.065700
O      2.290300   -0.807100   -2.110600
C      4.138100   -1.221500   -0.681000
C      4.881300   -2.204800   -1.310200
C      6.014900   -2.447300   -0.498100
C      5.901600   -1.598600    0.576600
O      4.774100   -0.849900    0.476200
C      0.066400   -0.097300   -0.158600
O      0.215000   -1.185000    0.393500
N     -1.150500    0.334800   -0.654500
C     -2.371000   -0.434300   -0.458700
C     -2.968300   -0.172800    0.926500
C     -4.196700   -1.046400    1.191900
C     -4.957000   -1.436500   -0.076600
C     -4.841800   -0.368700   -1.154900
C     -3.388400   -0.122500   -1.568200
