18

C     -2.642800    1.184700    1.998500
C     -1.680000    0.828500    0.856100
C     -1.982700    1.697300   -0.367900
C     -1.661100   -0.649600    0.464000
C     -2.834900   -1.420700    0.602700
C     -2.863000   -2.773300    0.266600
C     -1.719600   -3.383700   -0.224900
C     -0.551200   -2.639600   -0.393300
C     -0.503100   -1.276600   -0.067600
N      0.668200   -0.515100   -0.274800
C      1.898700   -0.920400   -0.758300
O      2.242500   -2.046800   -1.092900
C      2.876200    0.203200   -0.854700
C      4.163400   -0.023300   -1.317700
N      5.079600    0.974300   -1.419800
C      4.648500    2.199500   -1.039400
C      3.360600    2.426100   -0.576400
N      2.438100    1.440800   -0.469600
