20

C     -5.698800    0.011100    0.166300
C     -4.239300    0.214000   -0.247500
C     -3.707600    1.514500    0.361800
C     -3.401300   -1.006100    0.174500
C     -2.032200   -0.989400   -0.397700
C     -0.781500   -0.742600    0.112600
C      0.104000   -0.904000   -0.992300
C      1.572400   -0.763700   -1.054300
O      2.213700   -1.111900   -2.040700
N      2.136000   -0.204200    0.083900
C      3.504800    0.048000    0.354200
C      4.543300   -0.289000   -0.519400
C      5.869700   -0.007700   -0.176900
Cl     7.140000   -0.427700   -1.260400
C      6.181200    0.608600    1.033500
C      5.158100    0.948600    1.915900
C      3.831600    0.669100    1.577800
Cl     2.593900    1.107600    2.708600
N     -0.596000   -1.239800   -2.090400
O     -1.921100   -1.289800   -1.715700
