20

C     -6.052800   -0.928800    0.391800
C     -4.835800   -0.029500    0.616300
C     -5.126200    1.374700    0.081100
C     -3.597500   -0.648000   -0.046800
N     -2.364900    0.003000    0.359700
C     -1.145900   -0.586800    0.100600
O     -1.024200   -1.719100   -0.361900
C      0.051000    0.248700    0.469500
C      1.145300    0.243800   -0.569600
O      1.640500    1.300200   -0.963000
N      1.563700   -1.034600   -0.947700
N      2.427400   -1.191500   -2.002200
C      3.634400   -0.711900   -1.903900
C      4.339800   -0.187000   -0.716400
C      4.224300   -0.807300    0.531800
C      4.936600   -0.307200    1.624000
C      5.767500    0.801300    1.458200
Br     6.729500    1.479100    2.937800
C      5.900200    1.410200    0.209900
C      5.190400    0.909600   -0.884000
