16

C     -0.569300    2.790900    0.501700
C     -0.830400    1.685200   -0.523700
C     -0.038600    1.894300   -1.814900
N     -0.666600    0.336800    0.011600
C      0.431700   -0.196800    0.660800
N      1.577600    0.497600    0.857600
C      2.761800   -0.253300    1.276700
C      3.529900   -0.755400    0.048800
O      3.986700    0.352000   -0.738300
N      0.199700   -1.431800    1.042000
C     -1.063500   -1.730800    0.613100
C     -1.787700   -2.924600    0.752700
C     -3.077900   -2.999900    0.217500
C     -3.636100   -1.906800   -0.444700
C     -2.928600   -0.707200   -0.591600
C     -1.637300   -0.649200   -0.046400
