18

C     -4.359000   -1.674000    0.883400
C     -4.396100   -0.648000   -0.243400
C     -5.577100   -0.907900   -1.170700
O     -3.199300   -0.762000   -1.038900
C     -2.099600   -0.090100   -0.577600
O     -2.076900    0.578100    0.445100
C     -0.958600   -0.326900   -1.518600
N      0.206300    0.424400   -1.124900
N      0.424400    1.669600   -1.579200
N      1.634600    1.979500   -1.138600
C      2.115000    0.875500   -0.468800
C      3.433300    0.837500    0.151300
C      4.280700    1.953900    0.089000
C      5.546000    1.921200    0.681800
C      5.977400    0.773000    1.343100
C      5.146100   -0.343000    1.413600
C      3.880900   -0.311200    0.821200
N      1.242100   -0.149500   -0.480700
