22

C      3.329300   -2.497200    1.773600
C      2.550700   -1.347900    1.205800
C      1.990200   -0.384200    2.051900
C      1.227400    0.661600    1.526300
C      2.324100   -1.259000   -0.172500
C      1.563400   -0.212600   -0.699800
C      0.997600    0.747200    0.147100
C      0.207300    1.855000   -0.410300
C      0.811300    3.062900   -0.476300
C      0.111400    4.197600   -1.049400
C     -1.129500    4.074900   -1.550100
C     -1.773900    2.810700   -1.507000
C     -2.979600    2.326700   -1.944800
N     -3.109100    1.004200   -1.638300
C     -2.008100    0.660200   -0.986500
C     -1.801900   -0.676900   -0.434200
C     -1.824300   -0.895800    0.948700
C     -1.639000   -2.181300    1.462100
C     -1.449000   -3.257800    0.596700
C     -1.455200   -3.053600   -0.782400
C     -1.639200   -1.768600   -1.296400
N     -1.109400    1.730300   -0.917400
