19

C     -0.809300   -2.968100    0.515100
C     -1.116000   -2.055700   -0.642600
C     -1.152300   -0.603400   -0.372700
C      0.022400    0.132700   -0.061800
C      1.331200   -0.423200   -0.042100
C      2.492300    0.312100    0.268500
N      3.757900   -0.290100    0.293800
C      4.936400    0.534300    0.555900
C      3.985800   -1.441400   -0.582700
C      2.292900    1.660600    0.589100
C      1.024500    2.254400    0.560500
C     -0.113100    1.513800    0.230800
C     -1.372200    2.139600    0.186900
C     -2.492100    1.393900   -0.137500
C     -2.389100    0.032000   -0.414900
C     -3.728700   -0.534800   -0.777100
C     -4.671600    0.545800   -0.229100
C     -3.901900    1.871400   -0.291600
O     -1.369800   -2.476000   -1.767100
