25

C     -3.238200    3.054800   -0.804900
C     -2.885500    2.282800    0.437500
C     -2.888300    0.808700    0.341700
C     -1.669700    0.080300    0.340200
C     -0.391200    0.683300    0.438600
C      0.798700   -0.061200    0.430800
N      2.025100    0.622900    0.497900
C      3.318700    0.279500    0.071800
C      4.423100    0.801000    0.759400
C      5.734200    0.461500    0.398700
C      5.963200   -0.413400   -0.660400
O      7.183800   -0.827000   -1.116300
C      8.327400   -0.315200   -0.444000
C      4.871100   -0.940700   -1.349200
C      3.563600   -0.601200   -0.984600
C      0.703700   -1.445700    0.304000
C     -0.540300   -2.076200    0.212700
C     -1.729200   -1.335500    0.229900
C     -2.968700   -1.993100    0.144800
C     -4.137500   -1.250100    0.156600
C     -4.105900    0.141500    0.250400
C     -5.498900    0.691000    0.318100
C     -6.317900   -0.489500   -0.222800
C     -5.544200   -1.761800    0.141900
O     -2.583100    2.828900    1.493500
