19

C     -1.978200    3.021200    1.045600
C     -2.144200    1.617000    1.562800
C     -1.577700    0.519200    0.751000
C     -0.177600    0.360600    0.568200
C      0.797600    1.167700    1.183600
C      2.168300    0.967800    0.958600
C      2.650700   -0.038000    0.111300
N      4.018800   -0.242200   -0.104200
C      4.974900    0.760200    0.362800
C      4.442000   -1.025600   -1.264200
C      1.671100   -0.864000   -0.469600
C      0.285400   -0.691700   -0.262400
C     -0.631500   -1.571400   -0.867900
C     -1.989200   -1.399500   -0.657500
C     -2.464500   -0.363400    0.144100
C     -3.958800   -0.420300    0.247800
C     -4.310100   -1.317500   -0.947500
C     -3.112000   -2.251300   -1.160900
O     -2.759500    1.362300    2.593500
