19

C     -3.196900    2.451000   -0.089500
C     -2.720100    1.392100   -1.047600
C     -1.610900    0.525100   -0.600100
C     -0.279000    1.007200   -0.487900
C      0.093700    2.320400   -0.850900
C      1.406200    2.767900   -0.725400
C      2.387100    1.912000   -0.239900
C      2.078100    0.591200    0.124700
N      3.089900   -0.296300    0.584800
C      3.849000   -0.848300   -0.541600
C      3.916900    0.244500    1.664100
C      0.736500    0.125100   -0.005200
C      0.383200   -1.202700    0.333100
C     -0.923100   -1.642200    0.197800
C     -1.917600   -0.788000   -0.265700
C     -3.227900   -1.508100   -0.364300
C     -2.967300   -2.730900    0.527100
C     -1.461500   -3.014400    0.452400
O     -3.236500    1.210300   -2.145400
