25

C     -2.191500    1.220900    1.844800
C     -1.629100   -0.118800    1.363300
C     -2.362700   -0.795200    0.213600
C     -2.122100   -2.157100   -0.053600
C     -2.774500   -2.814600   -1.098100
C     -3.686000   -2.125700   -1.891400
C     -3.946100   -0.781300   -1.639000
C     -3.292800   -0.122300   -0.594100
C     -0.184400   -0.022300    0.954700
N      0.753100   -0.649300    1.683700
N      1.901400   -0.336300    1.031500
C      3.167100   -0.808200    1.469700
C      3.258400   -1.627800    2.603700
C      4.505300   -2.085200    3.034000
C      5.659800   -1.729500    2.336700
C      5.573200   -0.917100    1.206300
C      4.330300   -0.454900    0.770100
N      1.769800    0.464300   -0.051900
C      0.448000    0.673200   -0.112300
C     -0.124500    1.511600   -1.148600
C     -0.517700    0.953100   -2.368800
C     -1.078500    1.761000   -3.360000
C     -1.239200    3.128900   -3.137400
C     -0.834800    3.692900   -1.927100
C     -0.274200    2.887200   -0.935000
