29

Si    -6.382000   -1.443500   -0.192800
C     -6.591700    0.407600   -0.086400
C     -5.395500    1.024300   -0.033900
C     -5.235600    2.467100   -0.114200
C     -4.004800    2.999000   -0.228300
C     -2.877200    2.117600   -0.177200
S     -1.293700    2.695400   -0.433400
C     -0.570000    1.156400   -0.084700
C     -1.585800    0.268300    0.270400
C     -1.145800   -0.996700    0.817900
C     -1.914700   -1.901800    1.492600
S     -0.964800   -3.258800    1.949500
C      0.471900   -2.540600    1.329600
C      0.244400   -1.293400    0.782100
C      1.290700   -0.467400    0.304200
C      2.673000   -0.764400    0.249600
C      3.569800    0.201200   -0.206400
N      3.141500    1.432900   -0.596800
C      1.811900    1.702100   -0.538100
C      0.830600    0.803200   -0.106600
C      5.029600   -0.054800   -0.285700
C      5.930400    0.911300   -0.740500
C      7.291300    0.615000   -0.793600
C      7.729300   -0.638700   -0.392600
C      6.783900   -1.547400    0.046600
N      5.458600   -1.287600    0.108800
C     -2.906200    0.739300    0.037800
C     -4.209300    0.116200   -0.002100
C     -4.529700   -1.181200   -0.176100
