22

C     -3.370800    2.273600    1.116600
C     -3.843500    0.855400    0.761000
C     -2.987300   -0.193600    1.485400
N     -1.615700   -0.247200    1.016000
C     -0.573600    0.331600    1.709300
O     -0.705900    0.909200    2.781700
C      0.775900    0.200400    1.095000
C      0.958400    0.137600   -0.290500
C      2.248100    0.018400   -0.821500
C      3.377600   -0.030900    0.013300
C      4.731800   -0.152900   -0.551100
C      5.740800    0.765900   -0.216900
C      7.026400    0.651700   -0.753200
C      7.325200   -0.385300   -1.633000
C      6.340200   -1.307400   -1.977100
C      5.054800   -1.191100   -1.440900
C      3.176800    0.050900    1.401100
C      1.890800    0.170200    1.938000
C     -3.896000    0.709600   -0.780000
N     -4.512900   -0.475100   -1.388500
C     -5.803800   -0.835600   -0.818500
C     -3.635100   -1.624700   -1.532500
