23

C     -3.546800    2.645400    0.656100
C     -3.504800    1.242000    0.043300
N     -2.198400    0.628600    0.217800
C     -1.114000    0.981600   -0.551700
O     -1.162400    1.816600   -1.446700
C      0.140800    0.211300   -0.186000
C      1.357600    0.686000   -0.976800
C      2.662100    0.002600   -0.554200
C      2.700500   -1.483700   -0.912400
O      3.905600   -2.090700   -0.427100
C      5.004000   -1.325000   -0.720400
C      6.249000   -1.938900   -0.595900
C      7.409600   -1.225400   -0.900400
C      7.323100    0.101200   -1.326400
C      6.076800    0.719800   -1.437900
C      4.919500    0.011500   -1.120200
O      3.732300    0.687100   -1.231700
C     -4.570100    0.316600    0.605300
C     -5.323700   -0.481900   -0.270500
C     -6.291600   -1.361500    0.218100
C     -6.514200   -1.462300    1.589100
C     -5.766600   -0.687400    2.472600
C     -4.797600    0.192800    1.985700
