19

C     -5.692700   -1.965600   -0.147500
C     -4.570700   -1.071400    0.267000
C     -4.137400   -0.031400   -0.461700
C     -3.019000    0.806600    0.013200
O     -2.399400    0.646600    1.053700
O     -2.784100    1.771000   -0.907100
C     -1.742200    2.687700   -0.571100
C     -0.325100    2.157100   -0.827600
O      0.329800    2.557700   -1.786200
N      0.088100    1.236700    0.120300
C      1.326800    0.571300    0.199900
C      2.395600    0.802800   -0.664900
C      3.601000    0.100200   -0.520700
C      3.757500   -0.846900    0.493800
O      4.895900   -1.577800    0.708100
C      5.993900   -1.359900   -0.167600
C      2.680800   -1.075700    1.362900
Cl     2.789600   -2.231200    2.647300
C      1.478500   -0.373700    1.218300
