22

C     -1.645700   -1.548800    1.371200
C     -0.610300   -0.425600    1.469300
C      0.821300   -1.045300    1.451700
O      1.065700   -2.155100    1.921200
N      1.819000   -0.201700    0.998900
C      3.193100   -0.656000    0.854800
C      3.394500   -1.449100   -0.434300
C      3.548900   -0.387300   -1.519100
C      4.049500    0.873100   -0.812300
C      4.147800    0.519300    0.670500
C     -0.808200    0.362300    2.773000
C     -0.362600    1.783300    2.449900
C     -0.592200    1.894400    0.966000
O     -0.557700    2.932600    0.327100
N     -0.764900    0.618200    0.452000
C     -0.914000    0.345500   -0.971500
C     -2.351500    0.172500   -1.394100
C     -2.787000   -1.029800   -1.970700
C     -4.115400   -1.185500   -2.370600
C     -5.021200   -0.139900   -2.206000
C     -4.599600    1.063200   -1.644600
C     -3.272100    1.220200   -1.243900
