21

C     -1.121500   -1.875500   -1.589200
C     -1.014900   -1.157200   -0.239200
C     -0.763800   -2.155200    0.896900
C     -2.266100   -0.316700    0.035100
C     -1.921100    1.051000    0.135600
C     -2.892000    2.009800    0.381100
C     -4.219300    1.593900    0.527500
C     -4.557400    0.231700    0.426500
C     -5.964600   -0.189800    0.583700
O     -6.865600    0.609000    0.806400
C     -3.581600   -0.739700    0.178500
C     -0.493500    1.192700   -0.055300
C      0.303600    2.324400   -0.061800
C      1.678600    2.172000   -0.279200
C      2.260600    0.900600   -0.470200
N      3.650700    0.779200   -0.720400
C      4.601300    1.372500    0.216100
C      4.443400   -0.129400    0.096800
C      5.496700   -0.953300   -0.553800
C      1.436100   -0.234200   -0.489500
C      0.071700   -0.081300   -0.273400
