27

C     -4.603500   -2.056300   -0.967600
C     -4.080700   -1.171000    0.169300
C     -4.629500   -1.633600    1.523700
C     -4.414000    0.301400   -0.084000
C     -5.660300    0.902000   -0.198100
C     -5.712200    2.277500   -0.431600
C     -4.533000    3.030800   -0.547600
C     -3.279700    2.421800   -0.432100
C     -3.226100    1.056600   -0.200500
C     -2.088500    0.175800   -0.040400
C     -0.728800    0.450800   -0.074300
C      0.195400   -0.594200    0.114200
C      1.643200   -0.328900    0.082800
C      2.239600    0.306900   -1.013300
C      3.617400    0.560200   -1.039400
C      4.457300    0.186400    0.024200
C      5.907600    0.459900   -0.029600
C      6.867200   -0.315800    0.623100
N      8.201300   -0.062300    0.577400
C      8.554400    1.009800   -0.161600
C      7.622600    1.786700   -0.824200
N      6.294400    1.530500   -0.776200
C      3.849800   -0.442200    1.124700
C      2.470900   -0.697100    1.151900
C     -0.291700   -1.904300    0.334100
C     -1.661500   -2.184800    0.367800
C     -2.550200   -1.138400    0.179700
