26

C      3.945700    2.331200   -0.099600
C      3.520700    0.952000   -0.616300
C      4.182900    0.641000   -1.963300
C      3.830300   -0.138600    0.412300
C      5.062100   -0.527500    0.920600
C      5.093600   -1.560600    1.859100
C      3.908600   -2.188200    2.275600
C      2.669900   -1.793300    1.761200
C      2.636600   -0.767500    0.830000
C      1.517100   -0.161800    0.140400
C      0.159400   -0.437200    0.218500
C     -0.744000    0.302200   -0.568000
C     -2.189900    0.032700   -0.501300
C     -2.914600   -0.298100   -1.660000
C     -4.284500   -0.563100   -1.600400
C     -4.945300   -0.492700   -0.373100
C     -6.402000   -0.773400   -0.285500
O     -7.065200   -1.079700   -1.269800
C     -7.043600   -0.661000    1.047900
C     -6.277200   -0.338500    2.095200
N     -4.928200   -0.118800    2.029700
C     -4.253200   -0.149100    0.799900
C     -2.878000    0.096800    0.725900
C     -0.239800    1.310700   -1.422500
C      1.127900    1.590800   -1.502600
C      1.996500    0.849700   -0.717400
