27

C     -4.116500    1.515600   -1.582800
C     -3.524800    1.079300   -0.237800
C     -3.945800    2.034800    0.884500
C     -3.917700   -0.362700    0.092800
C     -5.185000   -0.892600    0.292500
C     -5.293800   -2.252900    0.587100
C     -4.149300   -3.061200    0.678500
C     -2.874500   -2.523300    0.476700
C     -2.764500   -1.173300    0.183800
C     -1.594100   -0.359800   -0.069400
C     -0.249500   -0.703200   -0.089700
C      0.716100    0.284600   -0.363300
C      2.149900   -0.054200   -0.392100
C      2.626500   -1.115500   -1.181300
C      3.986100   -1.442200   -1.210800
C      4.896600   -0.706900   -0.446900
C      4.445500    0.350300    0.340300
C      3.080900    0.673800    0.368500
C      5.397000    1.137600    1.149300
O      5.034400    2.078000    1.843600
C      6.822800    0.758800    1.097100
C      7.254100   -0.255200    0.343600
C      6.330200   -1.057800   -0.481300
O      6.754900   -1.980200   -1.164400
C      0.283400    1.609200   -0.610400
C     -1.070900    1.958200   -0.590800
C     -2.000200    0.966900   -0.319700
