23

C     -3.085400    0.413100    1.918000
C     -2.506600    0.884200    0.579000
C     -2.937600    2.322100    0.268500
C     -2.903500   -0.064700   -0.554700
C     -4.173000   -0.371000   -1.025400
C     -4.285700   -1.277800   -2.080900
C     -3.143000   -1.863200   -2.649200
C     -1.866100   -1.551900   -2.172100
C     -1.752200   -0.651600   -1.124700
C     -0.578700   -0.151600   -0.440100
C      0.764600   -0.434200   -0.638700
C      1.727200    0.191400    0.174700
C      3.158700   -0.088900   -0.022800
C      3.803800    0.424200   -1.164300
C      5.160000    0.186000   -1.397600
C      5.898800   -0.571600   -0.494500
C      5.281100   -1.092000    0.642200
C      3.917600   -0.856900    0.884000
C      3.330800   -1.426600    2.065600
N      2.891500   -1.893400    3.033700
C      1.304100    1.099200    1.172400
C     -0.049500    1.383400    1.374700
C     -0.981200    0.753300    0.564300
