30

Si    -6.299300   -2.720900    0.453200
C     -6.923500   -1.030700   -0.047000
C     -5.902900   -0.162800   -0.183500
C     -6.066500    1.233300   -0.565200
C     -4.990800    2.036800   -0.680000
C     -3.696000    1.480400   -0.417400
S     -2.281600    2.424800   -0.538800
C     -1.281800    1.060600   -0.090300
C     -2.046400   -0.069000    0.138100
S     -1.058200   -1.454100    0.591400
C      0.388300   -0.526100    0.477300
C      1.720100   -0.957600    0.710700
C      2.816600   -0.077000    0.571400
C      4.177400   -0.504100    0.800800
S      4.755400   -1.056800    2.336800
C      6.368600   -1.351500    1.744000
C      6.386500   -1.032600    0.432300
C      7.262100   -1.006300   -0.664200
C      6.488700   -0.531300   -1.731900
O      5.175600   -0.248900   -1.401400
C      5.195800   -0.576100   -0.079300
C      2.461800    1.233700    0.199800
C      3.374100    2.257700    0.038500
S      2.630300    3.743400   -0.414200
C      1.057400    3.045500   -0.389700
C      1.143100    1.727100   -0.045000
C      0.085100    0.765300    0.109800
C     -3.442400    0.167700   -0.049500
C     -4.551100   -0.733000    0.087700
C     -4.558600   -2.035400    0.429300
