25

C     -3.249400    1.941600   -1.743000
C     -2.801800    0.509000   -1.431500
C     -3.100300   -0.428600   -2.606900
C     -3.451900   -0.001600   -0.143300
C     -4.799400   -0.187800    0.133200
C     -5.154800   -0.671300    1.393600
C     -4.172600   -0.960900    2.354200
C     -2.816300   -0.771800    2.071600
C     -2.461200   -0.291500    0.821000
C     -1.157500   -0.002800    0.260200
C      0.108400   -0.129400    0.819500
C      1.248500    0.220300    0.065600
C      2.614500    0.111100    0.618000
C      2.914600    0.224000    1.968600
N      4.169300    0.118200    2.465000
C      5.148700   -0.098700    1.581400
N      6.402600   -0.208500    2.042200
C      7.371400   -0.423000    1.129600
C      7.098100   -0.525400   -0.216100
N      5.845000   -0.418100   -0.702200
C      4.863800   -0.206700    0.186300
N      3.611400   -0.099200   -0.275900
C      1.051800    0.680300   -1.262000
C     -0.220600    0.808900   -1.829100
C     -1.318000    0.467100   -1.058300
