20

C     -2.320600   -1.992700    0.683700
C     -1.867500   -0.829900   -0.206400
C     -2.576600   -0.868000   -1.564900
C     -2.089400    0.514200    0.491100
C     -3.281900    1.085500    0.913600
C     -3.232900    2.335300    1.533700
C     -2.008000    2.994500    1.723700
C     -0.809000    2.415600    1.296600
C     -0.855500    1.175200    0.680500
C      0.208600    0.351600    0.146000
C      1.577800    0.573700    0.099500
C      2.409500   -0.400300   -0.478200
C      3.842800   -0.178000   -0.537700
C      4.599300    1.013100   -0.619000
N      5.914700    0.782500   -0.637000
O      6.041500   -0.594900   -0.560400
C      4.808000   -1.156900   -0.499200
C      1.838200   -1.580500   -1.003200
C      0.458100   -1.803700   -0.957400
C     -0.346200   -0.833200   -0.381200
