29

C     -4.215000   -0.042100    2.054100
C     -3.877700   -0.439300    0.596600
C     -4.454500   -1.844400    0.292500
C     -4.554400    0.575300   -0.350600
C     -5.954400    0.748300   -0.361200
C     -6.564000    1.669800   -1.214100
C     -5.786700    2.442400   -2.067500
C     -4.401600    2.287400   -2.069700
C     -3.781900    1.347500   -1.233300
N     -2.385000    1.254900   -1.214300
C     -1.671500    0.317600   -0.456600
C     -0.269100    0.277000   -0.549400
C      0.504500   -0.601600    0.227900
C      1.978400   -0.647000    0.132000
C      2.745800    0.501600   -0.071900
C      4.127600    0.317000   -0.140100
N      5.143400    1.224900   -0.323800
C      6.365100    0.594500   -0.327100
C      7.650400    1.109300   -0.482300
C      8.667800    0.168700   -0.429500
N      8.488300   -1.157400   -0.244100
C      7.227400   -1.634000   -0.095000
C      6.128100   -0.766600   -0.133200
C      4.713900   -0.939700   -0.012200
C      3.876900   -2.039600    0.196200
N      2.531800   -1.880100    0.270200
C     -0.181900   -1.446200    1.110700
C     -1.574200   -1.396200    1.231800
C     -2.341400   -0.506300    0.458400
