28

C     -4.475000   -1.375300   -1.197500
C     -3.965500   -0.589200    0.034900
C     -4.418900   -1.303200    1.332500
C     -4.603700    0.816800    0.008600
C     -6.003300    0.988400    0.052100
C     -6.578400    2.259700    0.018800
C     -5.767300    3.384300   -0.066400
C     -4.382500    3.234800   -0.112500
C     -3.794600    1.962800   -0.057900
N     -2.404600    1.838200   -0.155100
C     -1.714500    0.624800   -0.062400
C     -0.311000    0.619000   -0.121200
C      0.426100   -0.574900   -0.085200
C      1.893900   -0.563800   -0.135000
C      2.609000   -1.319300   -1.066900
C      4.005400   -1.280400   -1.084100
C      4.688300   -0.483000   -0.165000
C      6.169600   -0.401500   -0.136300
C      6.852300    0.395100    0.786300
C      8.245400    0.433400    0.767400
C      8.932600   -0.322800   -0.170900
C      8.194600   -1.089000   -1.054400
N      6.843900   -1.145500   -1.058900
N      4.012700    0.261000    0.753200
C      2.656900    0.200600    0.745200
C     -0.286000   -1.776900   -0.006100
C     -1.683600   -1.783500    0.033500
C     -2.421100   -0.584900    0.000600
