28

C     -4.355800   -1.076300    1.591300
C     -3.798200   -1.066900    0.146100
C     -4.049800   -2.442200   -0.518100
C     -4.562800    0.006000   -0.659700
C     -5.965000   -0.046100   -0.805200
C     -6.653200    0.920000   -1.540800
C     -5.953800    1.952800   -2.152200
C     -4.567800    2.019700   -2.021800
C     -3.869900    1.066500   -1.266100
N     -2.473600    1.126600   -1.196900
C     -1.686800    0.259400   -0.430000
C     -0.294700    0.441800   -0.388300
C      0.543700   -0.428600    0.324600
C      1.999100   -0.218800    0.365900
C      2.684200   -0.129100    1.584000
C      4.070800    0.069100    1.619900
C      4.830500    0.190000    0.443100
C      6.290400    0.403600    0.507700
C      7.019900    1.074200   -0.475500
N      8.363600    1.267700   -0.418300
C      8.967500    0.764600    0.678100
C      8.264200    0.105200    1.668900
N      6.925500   -0.085000    1.608300
C      4.137200    0.088600   -0.775200
C      2.749200   -0.108900   -0.812700
C     -0.050400   -1.507300    0.988500
C     -1.432300   -1.712400    0.933000
C     -2.272600   -0.837500    0.218300
