28

Si     5.544200    2.261200    1.395500
C      6.391100    0.898700    0.448400
C      5.491300    0.057700   -0.096300
C      5.859000   -1.101400   -0.892300
C      4.902600   -1.896600   -1.404300
C      3.534700   -1.567200   -1.142700
S      2.268500   -2.520700   -1.753500
C      1.061100   -1.521600   -1.042500
C     -0.336400   -1.730400   -1.145100
C     -1.240700   -0.859800   -0.529000
C     -2.665700   -1.086300   -0.641400
C     -3.682200   -0.280300   -0.057600
C     -5.097600   -0.547900   -0.174200
C     -6.216200   -0.296800    0.596500
C     -7.325200   -0.839200   -0.099300
C     -6.818000   -1.395600   -1.247900
O     -5.472200   -1.231400   -1.299200
C     -3.117400    0.788500    0.640400
C     -3.737500    1.818600    1.301600
O     -2.803200    2.658800    1.840700
C     -1.571500    2.172200    1.506600
C     -1.712000    1.030700    0.760300
C     -0.691800    0.230800    0.195200
C      0.707500    0.438300    0.295400
C      1.617300   -0.450100   -0.331700
C      3.062300   -0.488500   -0.398300
C      4.059200    0.393700    0.171600
C      3.898300    1.499000    0.925300
