27

C     -3.240700   -2.237400    0.261700
C     -2.844300   -0.808400    0.705400
C     -3.081400   -0.650800    2.228000
C     -3.755600    0.196800   -0.032000
C     -5.157000    0.170300    0.127200
C     -5.979700    1.074500   -0.546500
C     -5.419500    2.017900   -1.398400
C     -4.037000    2.058100   -1.570300
C     -3.200600    1.168600   -0.880400
N     -1.820800    1.195700   -1.113100
C     -0.894900    0.389500   -0.441200
C      0.475500    0.534200   -0.713700
C      1.440700   -0.283400   -0.106100
C      2.874400   -0.112800   -0.395600
C      3.345800   -0.121100   -1.738100
C      4.702500    0.039300   -2.049100
C      5.571600    0.206500   -0.992900
C      5.133300    0.215500    0.319100
C      3.800700    0.059700    0.650500
C      6.305400    0.410500    1.171400
O      6.294000    0.466300    2.384000
N      7.375300    0.509000    0.335800
C      7.021500    0.396100   -0.973600
O      7.740100    0.439900   -1.951000
C      0.994000   -1.270300    0.779400
C     -0.369600   -1.438700    1.039000
C     -1.336700   -0.617600    0.428800
