29

C     -4.234400   -0.638300    2.268600
C     -3.980500   -0.670600    0.741900
C     -4.492800   -2.010000    0.156500
C     -4.783900    0.478500    0.094300
C     -6.189000    0.543600    0.202500
C     -6.912200    1.588200   -0.375400
C     -6.245700    2.592300   -1.066300
C     -4.857600    2.546200   -1.182200
C     -4.124200    1.489600   -0.623400
N     -2.728300    1.493100   -0.712200
C     -1.906100    0.466900   -0.234200
C     -0.516600    0.546800   -0.423000
C      0.354800   -0.429900    0.082400
C      1.807600   -0.337300   -0.133700
C      2.335700   -0.237900   -1.422900
C      3.716900   -0.150600   -1.638700
C      4.622900   -0.159400   -0.548700
C      4.087200   -0.258300    0.734200
C      2.696000   -0.347800    0.954500
S      5.315900   -0.252600    1.931000
C      6.575200   -0.122200    0.774200
C      7.958800   -0.059800    1.036900
C      8.849200    0.045600   -0.033100
C      8.378900    0.088400   -1.336700
C      7.005600    0.026200   -1.591500
C      6.072200   -0.081300   -0.526700
C     -0.202600   -1.491300    0.803400
C     -1.582500   -1.570400    1.013600
C     -2.456400   -0.591200    0.503800
