24

C     -3.177500    1.283000   -0.186100
C     -2.084800    0.678800   -1.101000
C     -1.891000    1.579500   -2.346300
C     -2.567000   -0.708100   -1.578600
C     -3.754300   -0.854800   -2.326300
C     -4.191600   -2.110000   -2.752300
C     -3.456000   -3.244300   -2.433000
C     -2.281600   -3.119500   -1.693100
C     -1.821500   -1.860300   -1.281100
N     -0.670800   -1.771200   -0.488600
C     -0.096900   -0.563400   -0.073600
C      1.091800   -0.584300    0.673600
C      1.675300    0.595400    1.157100
C      2.922300    0.562500    1.937600
C      2.873300    0.849300    3.315500
C      4.028000    0.831500    4.100900
C      5.256900    0.527700    3.524400
C      5.331200    0.241700    2.161700
C      4.174300    0.257300    1.365000
C      4.312700   -0.036000   -0.034800
N      4.457700   -0.288500   -1.158700
C      1.026900    1.806600    0.896900
C     -0.170500    1.834600    0.177200
C     -0.756400    0.651400   -0.313300
