26

C     -2.845500    2.421000   -0.260600
C     -2.534000    1.012000   -0.820800
C     -2.647000    1.028700   -2.365600
C     -3.588900    0.028100   -0.270300
C     -4.963600    0.203300   -0.534000
C     -5.916500   -0.683400   -0.030000
C     -5.515900   -1.758000    0.753700
C     -4.162300   -1.946400    1.026800
C     -3.195400   -1.074100    0.505800
N     -1.848400   -1.255100    0.842400
C     -0.802000   -0.472600    0.339500
C      0.523000   -0.770800    0.706900
C      1.610800    0.011900    0.281600
C      3.003200   -0.295300    0.661000
C      3.361500   -0.931200    1.841600
N      4.641800   -1.213200    2.177400
C      5.587100   -0.838300    1.309500
N      6.865200   -1.103500    1.613900
C      7.798500   -0.711000    0.723700
C      7.466500   -0.066600   -0.447000
N      6.188000    0.210200   -0.774000
C      5.241400   -0.171800    0.094800
N      3.964700    0.091700   -0.212300
C      1.318800    1.114900   -0.533700
C      0.003700    1.436100   -0.884700
C     -1.079400    0.654500   -0.445600
