21

C     -1.607000   -2.012100   -1.183100
C     -1.342600   -1.131000    0.061900
C     -1.579500   -1.961300    1.347900
C     -2.350800    0.038300    0.049400
C     -3.742000   -0.192000    0.087600
C     -4.652200    0.865900    0.068000
C     -4.191000    2.174500    0.001900
C     -2.820100    2.422000   -0.039000
C     -1.897400    1.366600    0.002800
N     -0.528400    1.641000   -0.093400
C      0.475900    0.669700   -0.012100
C      1.823800    1.061200   -0.070500
C      2.858200    0.117300   -0.043400
C      4.250500    0.521700   -0.088600
C      5.414400   -0.080500    0.441100
N      6.520700    0.613600    0.161900
O      6.088000    1.701900   -0.578000
C      4.740400    1.638400   -0.724600
C      2.523100   -1.236300    0.031800
C      1.183400   -1.634700    0.064800
C      0.138300   -0.691200    0.036400
