21

C     -1.713600   -1.812300    1.556700
C     -1.450300   -1.076400    0.220600
C     -1.782000   -2.015500   -0.965800
C     -2.392700    0.144900    0.147400
C     -3.794900   -0.006600    0.179900
C     -4.644300    1.099500    0.121700
C     -4.109900    2.379000    0.037600
C     -2.727000    2.548800    0.006600
C     -1.865900    1.442600    0.042500
N     -0.482000    1.643900    0.063100
C      0.463800    0.612800    0.047100
C      1.831300    0.928000    0.014400
C      2.816600   -0.067800    0.052600
C      4.226300    0.316700    0.004600
C      5.279200   -0.497500    0.382000
S      6.772500    0.325600    0.180300
C      5.914000    1.697700   -0.378400
N      4.605800    1.584200   -0.423200
C      2.404500   -1.400700    0.131200
C      1.043800   -1.722900    0.185700
C      0.052100   -0.723600    0.152200
