24

C     -2.174700    2.116800    1.068300
C     -1.896600    1.058900   -0.028500
C     -2.226300    1.651900   -1.419700
C     -2.829300   -0.147200    0.217100
C     -4.232000    0.001800    0.236300
C     -5.073400   -1.090800    0.451200
C     -4.530900   -2.355100    0.643400
C     -3.147400   -2.522500    0.625400
C     -2.293100   -1.427200    0.432800
N     -0.910600   -1.632500    0.363700
C      0.029800   -0.605700    0.225600
C      1.398700   -0.917500    0.215600
C      2.384400    0.064000    0.018600
C      3.812100   -0.306400    0.023400
N      4.190100   -1.027700    1.111700
C      5.477400   -1.394400    1.186700
N      6.419900   -1.121700    0.276100
C      6.006800   -0.418900   -0.798100
C      4.710200    0.017800   -0.982400
C      4.364500    0.730800   -2.166000
N      4.116300    1.323400   -3.132200
C      1.955400    1.384700   -0.160700
C      0.593100    1.701900   -0.178500
C     -0.391500    0.712500    0.003600
