21

C     -1.112500   -0.286700    2.523500
C     -1.058800    0.442600    1.159100
C     -1.204200    1.969100    1.377900
C     -2.252900   -0.039200    0.306600
C     -3.583600    0.145700    0.736800
C     -4.661300   -0.298500   -0.031000
C     -4.430900   -0.942900   -1.239900
C     -3.123000   -1.136700   -1.680500
C     -2.034500   -0.674800   -0.926500
N     -0.731100   -0.927000   -1.367500
C      0.421700   -0.469300   -0.720200
C      1.681400   -0.735900   -1.279900
C      2.862000   -0.339000   -0.638400
C      4.169000   -0.607400   -1.228600
N      5.347500   -0.237300   -0.610800
C      6.250200   -0.656900   -1.459400
O      5.734900   -1.258200   -2.558600
N      4.349600   -1.226800   -2.409200
C      2.763700    0.319600    0.590200
C      1.514100    0.569900    1.164300
C      0.323700    0.175400    0.522800
