24

C     -1.982300    2.242200   -1.552900
C     -2.173000    0.857300   -0.931900
C     -2.616700   -0.166500   -1.978600
C     -3.137900    0.900100    0.263600
C     -4.497700    1.221000    0.477900
C     -4.826500    1.069800    1.817300
S     -3.486800    0.544100    2.783200
C     -2.509400    0.525800    1.437300
C     -1.155400    0.216800    1.162800
S      0.158400   -0.296300    2.040000
C      1.149300   -0.295500    0.610600
C      2.547400   -0.704800    0.708700
C      3.068300   -1.701800   -0.166600
N      2.413400   -2.365900   -1.136400
S      3.493100   -3.415300   -1.829000
N      4.857900   -3.078200   -0.948900
C      4.519400   -2.131000   -0.062700
C      5.389500   -1.558500    0.889500
C      4.819700   -0.579400    1.709500
F      5.611200    0.004500    2.622900
C      3.471300   -0.168100    1.627700
F      3.073500    0.805200    2.464700
C      0.427500    0.092900   -0.516200
C     -0.913100    0.393400   -0.185100
