31

C     -6.404400   -0.173900   -1.807700
C     -6.020900   -0.333600   -0.335400
C     -6.459700   -1.693600    0.210400
C     -6.562800    0.822000    0.519900
C     -7.831900    1.335500    0.871800
C     -7.695800    2.436700    1.704700
S     -6.040300    2.824000    2.041800
C     -5.538400    1.550500    1.096600
C     -4.295700    0.992900    0.710700
S     -2.695200    1.319500    1.000500
C     -2.197600   -0.022900    0.003100
C     -0.802100   -0.363500   -0.215200
C     -0.317800   -1.406300   -0.985300
C      1.106400   -1.473600   -0.997600
C      1.697600   -0.482400   -0.237300
C      3.122600   -0.296600   -0.059600
N      3.985400   -1.110100   -0.647200
C      5.246200   -0.718200   -0.319200
S      6.812000   -1.325700   -0.733400
C      7.502100   -0.057900    0.237000
C      8.927700    0.127100    0.414100
C      9.521600    1.120900    1.175800
C     10.945200    1.057200    1.166100
C     11.404000    0.014300    0.395900
S     10.124200   -0.874100   -0.305000
N      6.639100    0.755300    0.824500
C      5.378300    0.363900    0.496800
S      3.812400    0.971100    0.910800
S      0.503100    0.512600    0.477900
C     -3.306500   -0.686700   -0.527100
C     -4.520000   -0.091300   -0.111900
