22

C     -2.943500    0.476100    1.551500
C     -2.465200    0.462000    0.098500
C     -2.648400    1.829800   -0.561800
C     -3.145000   -0.653900   -0.711100
C     -4.461700   -0.984000   -1.105200
C     -4.465400   -2.151400   -1.854900
S     -2.880300   -2.820500   -2.065000
C     -2.225300   -1.576200   -1.176200
C     -0.929100   -1.195600   -0.753000
S      0.611600   -1.789200   -0.929300
C      1.261100   -0.473700    0.011000
C      2.704500   -0.398100    0.244900
C      3.503400   -1.519300    0.575300
C      4.897800   -1.449300    0.807100
C      5.625900   -0.252100    0.733000
C      4.886700    0.910500    0.410600
N      5.397800    2.145700    0.294400
S      4.133100    3.141800   -0.102700
N      2.879400    2.058600   -0.132200
C      3.393700    0.849000    0.160900
C      0.254900    0.394600    0.432400
C     -1.015500   -0.032100   -0.015600
