25

C      4.810200   -0.885200   -2.105700
C      4.878200   -0.897200   -0.570000
C      6.039700   -1.808400   -0.147300
C      3.580400   -1.406500    0.075500
C      2.470100   -0.388200    0.011500
N      1.213100   -0.878600    0.149400
C      0.257700    0.066100    0.134000
O     -1.066200   -0.227500    0.254900
C     -1.745900    0.954500    0.200100
C     -3.126400    1.170000    0.276100
N     -4.089800    0.199200    0.450300
C     -3.763300   -1.219300    0.616900
C     -5.001400   -1.986800    1.111300
O     -6.136800   -1.889600    0.240100
C     -6.193200   -0.655800   -0.490600
C     -5.498900    0.526300    0.207000
N     -3.505100    2.476300    0.172200
C     -2.573900    3.439700    0.017400
N     -1.243100    3.296600   -0.060800
C     -0.855400    2.004300    0.036000
C      0.441200    1.437700   -0.003000
C      1.754700    1.910000   -0.142800
C      2.791800    0.966700   -0.126100
C      4.216400    1.409400   -0.321300
O      5.187300    0.400900   -0.040900
