17

C     -3.650700    0.115900    1.629600
C     -2.855400   -0.114400    0.345700
C     -3.405900    0.754200   -0.791000
C     -1.341400    0.142200    0.561500
N     -0.629900   -0.890900   -0.153700
C     -1.329100   -1.990600   -0.514900
N     -0.541500   -2.899400   -1.010400
N      0.740500   -2.365700   -0.947800
C      0.679000   -1.144900   -0.425900
C      1.816000   -0.280600   -0.129500
C      1.803100    1.091300   -0.419300
C      2.907900    1.891700   -0.114500
C      4.038000    1.325200    0.471300
C      4.063500   -0.038100    0.735800
O      5.195000   -0.556100    1.292900
C      2.968300   -0.844200    0.437900
S     -3.001300   -1.897200   -0.163900
