19

C     -0.442600    3.150700   -0.274300
C      0.479200    1.988900   -0.262000
N      1.816300    2.156600    0.010900
C      2.503000    0.975400   -0.159600
C      3.869900    0.692100   -0.047600
Br     5.117100    2.023100    0.442000
C      4.301100   -0.608700   -0.317200
C      3.390800   -1.592200   -0.696100
C      2.026200   -1.297400   -0.803100
C      1.565700    0.004500   -0.515300
C      0.294200    0.643600   -0.505200
C     -1.051100   -0.037700   -0.874600
C     -2.282900    0.047500    0.007900
C     -2.316200    0.794800    1.308500
C     -3.387200    0.160000    2.089300
N     -4.238300   -0.328800    2.710000
C     -1.563300   -1.283600   -0.155700
C     -2.247800   -2.331200   -1.002900
C     -0.838700   -1.877100    1.031000
