18

C      0.733500   -3.260700   -0.037500
C      1.061700   -1.812000   -0.089400
N      2.074000   -1.341500   -0.888100
C      2.208800    0.018000   -0.750800
C      3.109600    0.898000   -1.363400
C      3.027700    2.250700   -1.023600
C      2.084200    2.700900   -0.104800
C      1.192200    1.806100    0.498100
C      1.247600    0.435300    0.168100
C      0.503900   -0.724900    0.571200
C     -0.637500   -0.763700    1.544700
C     -1.724300    0.233000    1.230800
N     -2.015200    1.224100    2.031100
N     -3.027700    1.880400    1.396500
C     -3.324100    1.259200    0.193800
S     -4.472200    1.805100   -0.867600
N     -2.490500    0.171900    0.115500
C     -2.382300   -0.772200   -0.980700
