12

C      2.096200   -1.698800   -0.683100
C      1.253000   -0.528100   -0.249000
C      1.550000    0.769700   -0.496300
C      2.706900    1.173300   -1.224100
N      3.659200    1.442700   -1.831800
C      0.674100    1.858100    0.038900
O      0.972300    3.044600   -0.037800
N     -0.495500    1.482500    0.646000
C     -1.094600    0.165400    0.466100
C     -1.816600    0.111300   -0.893400
C     -2.120300   -0.081600    1.580800
C      0.013100   -0.909300    0.536000
