21

C      1.259600   -2.570400    1.441400
C     -0.154600   -2.251700    1.049600
C     -0.712300   -1.028600    1.007000
C      0.027400    0.184000    1.426000
O     -0.252900    0.684600    2.514300
N      0.990500    0.699400    0.573900
C      1.273500    0.225200   -0.785000
C      2.764500    0.309300   -1.089800
C      3.307100    1.732200   -0.942200
C      2.399800    2.635600   -0.108900
C      1.729600    1.876300    1.030100
C     -2.167700   -0.810800    0.722700
C     -2.492300    0.201500   -0.357600
C     -2.935500    1.500900   -0.180800
C     -3.128800    2.187700   -1.413400
C     -2.826000    1.395600   -2.496800
S     -2.306500   -0.162900   -2.028300
N     -2.837500   -2.055200    0.392200
C     -2.268700   -3.283100    0.426100
O     -2.912700   -4.296800    0.178600
N     -0.945600   -3.335300    0.747100
