23

C      0.096300    3.756900    0.179300
C     -0.275400    2.337900   -0.187700
C     -1.315500    2.027500   -1.006900
C     -2.122500    3.122600   -1.685300
C     -1.631000    0.640800   -1.223000
C     -2.634800    0.032200   -1.950100
C     -2.489800   -1.370500   -1.828200
C     -1.381700   -1.606000   -1.008100
C     -0.984200   -2.922600   -0.700100
C     -1.716400   -3.990600   -1.228800
C     -2.818400   -3.766000   -2.043800
C     -3.214300   -2.461900   -2.349800
N     -0.868000   -0.360800   -0.639000
C      0.251900   -0.089900    0.193900
N      0.959500   -1.129500    0.715300
C      2.020200   -0.861400    1.488500
C      2.422000    0.455000    1.773600
C      3.545200    0.689800    2.587800
C      4.267200   -0.377200    3.118900
C      3.871400   -1.679800    2.839400
C      2.755400   -1.908000    2.029300
C      1.671400    1.506400    1.223100
C      0.553000    1.254800    0.416600
