19

C     -3.934700   -1.712900    0.481400
C     -2.586400   -1.119300    0.316000
C     -2.228100    0.214200    0.183400
C     -3.133700    1.388300    0.176000
N     -0.838400    0.210000    0.059300
C     -0.457600   -1.124900    0.125700
C      0.938900   -1.528800    0.031000
C      1.921200   -0.533200   -0.132000
C      1.498100    0.895700   -0.201600
C      0.122900    1.259900   -0.105800
C     -0.253600    2.609500   -0.173700
C      0.704300    3.610600   -0.334900
C      2.045500    3.277200   -0.429900
C      2.434800    1.938600   -0.364000
C      3.259900   -0.963900   -0.219500
C      3.602500   -2.320000   -0.148100
C      2.614900   -3.283000    0.013000
C      1.284600   -2.888100    0.102400
N     -1.489800   -1.927600    0.278700
