22

C     -0.252200    3.964500   -0.969000
C     -0.180700    2.535300   -0.623500
C      1.008300    1.955600   -0.602800
B      1.163500    0.441200   -0.244800
C      2.538700   -0.266400   -0.184600
C      3.308300   -0.191700    0.958300
C      4.542000   -0.828100    1.008500
C      5.008600   -1.535400   -0.071800
C      4.248200   -1.617900   -1.221300
C      3.021400   -0.976500   -1.251300
N     -0.121500   -0.314400    0.074100
C     -1.343700    0.410800    0.020800
C     -2.515200   -0.297100    0.316200
C     -2.522300   -1.709800    0.665700
C     -3.862000   -2.340200    0.959200
C     -1.439700   -2.469800    0.741900
B     -0.065600   -1.808500    0.437200
O      1.206900   -2.410700    0.768400
C     -3.694600    0.406800    0.263600
C     -3.772900    1.738500   -0.057200
C     -2.588900    2.390000   -0.339800
C     -1.365500    1.748300   -0.307200
