19

C     -4.087900   -2.024700   -0.304900
C     -3.097800   -0.905200   -0.336700
C     -1.783100   -1.070100   -0.101600
C     -0.873500    0.079900   -0.151200
C      0.454200   -0.041500    0.078600
C      1.474200    1.061500    0.054400
O      1.336300    2.246800   -0.166400
C      2.761900    0.435800    0.362500
C      4.002500    1.042900    0.456300
C      5.099200    0.232900    0.765300
C      4.936900   -1.150400    0.971900
C      3.675500   -1.744900    0.872700
C      2.602100   -0.926200    0.566000
C      1.196600   -1.305700    0.408000
O      0.786500   -2.440800    0.533800
C     -1.496900    1.370000   -0.466100
C     -2.822000    1.446400   -0.688000
C     -3.531300    2.721300   -1.013900
O     -3.653800    0.334000   -0.632400
