19

C     -2.963500   -3.726900    1.821000
C     -2.073800   -2.633700    1.313200
C     -2.625200   -1.535100    0.613200
C     -1.859500   -0.462400    0.096600
C     -0.455900   -0.375900    0.221800
C      0.326300    0.739600   -0.316200
C      1.153900    0.612300   -1.450100
C      1.251900   -0.626200   -2.172800
N      1.323500   -1.612000   -2.782200
C      1.886200    1.715300   -1.921200
C      0.249700    1.995800    0.311800
C      0.980600    3.088900   -0.162300
C      1.815600    2.954300   -1.273800
C      2.578100    4.133600   -1.801700
C      0.164600   -1.450200    0.923900
N      1.478000   -1.583500    1.182700
S      1.661300   -3.012000    2.002200
N      0.086100   -3.517200    2.104700
C     -0.660000   -2.594800    1.474300
