19

C      5.055500   -0.212500   -0.714600
C      3.578200   -0.134700   -0.478600
C      2.674800   -0.514100   -1.495500
C      1.266500   -0.473500   -1.355000
C      0.598500   -0.047500   -0.182500
C     -0.863100   -0.015100   -0.061700
C     -1.648700   -1.134800   -0.380800
F     -1.065100   -2.269600   -0.797800
C     -3.041900   -1.117300   -0.279300
C     -1.537300    1.142400    0.359500
C     -2.928700    1.160800    0.461200
F     -3.531400    2.291300    0.856100
C     -3.697900    0.036500    0.156600
C     -5.191400    0.091800    0.248300
C      1.459100    0.344100    0.887200
N      1.083400    0.773700    2.106400
S      2.466900    1.086500    2.959900
N      3.619300    0.701600    1.835100
C      2.968000    0.298200    0.731300
