19

C      5.144000   -0.812300   -0.625600
C      3.704000   -0.421000   -0.491200
C      2.715500   -1.074100   -1.263000
C      1.335800   -0.767300   -1.198800
C      0.794400    0.223800   -0.351300
C     -0.635200    0.528600   -0.307500
C     -1.155900    1.448000   -1.236300
C     -2.515100    1.766700   -1.260600
C     -1.517700   -0.070500    0.617900
C     -1.058600   -1.076600    1.651700
C     -1.204400   -2.508500    1.158000
C     -2.887900    0.256800    0.576000
C     -3.395100    1.162200   -0.363100
C     -4.850300    1.524500   -0.360900
C      1.737600    0.928900    0.451200
N      1.474700    1.916600    1.326000
S      2.922000    2.375500    1.985200
N      3.961600    1.351000    1.200500
C      3.214800    0.595700    0.377300
