26

C     -7.638600    0.474300    0.046200
C     -6.140000    0.520100    0.076700
C     -5.392000   -0.014000   -0.976800
C     -3.995300    0.056700   -0.962100
C     -3.311800    0.672200    0.098200
C     -1.842800    0.745800    0.111600
C     -1.181800    1.957900    0.225900
C      0.214000    1.999800    0.231500
C     -1.052300   -0.409700    0.008600
C      0.375700   -0.411600    0.011500
C      1.031800    0.841000    0.125700
C      2.465700    0.904900    0.131800
C      3.177100    2.133700    0.236000
C      4.569600    2.217400    0.246000
C      5.323600    1.063300    0.161400
C      6.821200    1.120000    0.136000
C      4.651800   -0.159000    0.041200
C      3.230600   -0.286200    0.027900
C      2.568000   -1.554700   -0.086300
C      3.280100   -2.784500   -0.193700
C      2.655300   -4.025500   -0.305700
C      1.280600   -4.085900   -0.314500
C      0.548000   -2.904500   -0.211000
C      1.148200   -1.617000   -0.094700
C     -4.073600    1.219200    1.142400
C     -5.470400    1.148600    1.130900
