29

C      7.626400   -0.614800   -0.269000
C      6.166600   -0.306500   -0.133000
C      5.273200   -0.622100   -1.180100
C      3.882000   -0.365100   -1.133100
C      3.224000    0.238600   -0.034800
C      1.778900    0.488000   -0.017900
C      1.256400    1.742100    0.253100
C     -0.124700    1.949900    0.239500
C      0.860700   -0.537400   -0.299500
C     -0.557800   -0.368500   -0.325100
C     -1.067400    0.925300   -0.047000
C     -2.483300    1.160700   -0.060600
C     -3.049400    2.439700    0.204600
C     -4.422000    2.689300    0.197400
C     -5.302000    1.658500   -0.068400
C     -6.780600    1.899200   -0.116300
C     -4.773700    0.392700   -0.348900
C     -3.377600    0.097400   -0.350300
C     -2.863600   -1.213400   -0.630700
C     -3.710100   -2.320700   -0.927900
C     -3.231200   -3.600800   -1.201800
C     -1.873800   -3.825900   -1.188500
C     -1.012400   -2.768000   -0.901900
C     -1.461500   -1.445500   -0.617500
C      4.074500    0.583500    1.059200
N      3.706400    1.158000    2.219600
S      5.073700    1.327300    3.135900
N      6.212100    0.689600    2.116400
C      5.565700    0.303600    1.003300
