32

Si    -5.699800   -1.610900    1.955300
C     -6.526100   -0.004400    1.459700
C     -5.670600    0.774500    0.772200
C     -5.977600    2.085000    0.236200
C     -5.018200    2.752200   -0.432000
C     -3.680400    2.196900   -0.631600
C     -3.316200    0.976700   -0.170800
C     -1.943200    0.535400   -0.418300
C     -0.839500    0.910300    0.387900
C      0.462900    0.428600    0.091000
N      1.680200    0.638000    0.706400
C      2.695300   -0.044900    0.060800
C      2.119500   -0.728900   -1.018300
N      2.825100   -1.507400   -1.875500
C      4.152100   -1.589000   -1.624600
C      4.850400   -0.964200   -0.592400
C      6.280800   -1.133400   -0.431400
C      7.061000   -0.535100    0.587700
C      6.261800    0.239300    1.414500
C      6.674500    0.961500    2.500800
O      5.598500    1.592600    3.058900
C      4.494900    1.264800    2.316700
C      4.851100    0.430100    1.288100
C      4.068700   -0.154300    0.287100
C      0.761400   -0.415800   -0.965500
C     -0.323000   -0.813400   -1.792300
C     -0.349800   -1.623300   -2.885900
N     -1.673500   -1.646800   -3.272400
C     -2.437900   -0.861100   -2.424000
C     -1.599200   -0.320100   -1.472600
C     -4.316400    0.203300    0.571000
C     -4.142300   -1.019300    1.112600
