14

C      4.859000    0.486200   -0.262600
C      3.366300    0.378800   -0.168500
C      2.762200   -0.160500    0.969700
C      1.369400   -0.287400    1.044200
C      0.538000    0.106700   -0.019700
C     -0.931100   -0.024300    0.039100
C     -1.591600   -1.013800    0.758300
C     -2.984200   -1.055100    0.747900
N     -1.645300    0.880700   -0.670100
N     -3.020700    0.843100   -0.682700
C     -3.675200   -0.105300    0.014700
C     -5.169300   -0.101400   -0.034200
C      1.166700    0.641700   -1.159000
C      2.558000    0.769500   -1.237900
