21

C      7.134500    0.408000    0.591000
C      5.650700    0.248500    0.443200
C      4.870600    1.295500   -0.056600
C      3.491100    1.135200   -0.223200
C      2.858600   -0.077100    0.093400
C      1.406300   -0.244100   -0.082800
C      0.503300    0.644600    0.527300
C     -0.858000    0.454900    0.339200
C     -2.002100    1.276400    0.897500
C      0.893000   -1.303200   -0.870500
C     -0.483600   -1.488000   -1.057200
C     -1.354400   -0.603900   -0.448000
C     -2.800500   -0.540200   -0.455200
C     -3.739500   -1.348200   -1.071200
C     -5.095300   -1.045100   -0.899100
C     -3.209600    0.559000    0.329000
C     -4.549300    0.867000    0.505600
C     -5.507300    0.062000   -0.126400
C     -6.970300    0.339300    0.065600
C      3.654200   -1.126000    0.579900
C      5.033700   -0.968200    0.748700
