24

C      6.998400    1.146600   -0.324900
C      5.558600    0.752300   -0.199300
C      4.603800    1.247700   -1.114300
C      3.226300    0.925400   -1.067300
C      2.645600    0.068900   -0.101700
C      1.211400   -0.241900   -0.080900
C      0.261600    0.798400   -0.064900
C     -1.101700    0.469100   -0.065000
N     -2.211200    1.281100   -0.042700
C      0.757800   -1.569500   -0.099100
C     -0.609200   -1.884300   -0.100200
C     -1.559300   -0.845800   -0.083900
C     -2.990000   -0.803200   -0.079700
C     -4.000400   -1.785300   -0.089100
C     -5.344900   -1.392200   -0.079700
C     -3.367900    0.537600   -0.056400
C     -4.706900    0.949700   -0.045300
C     -5.702100   -0.039900   -0.071000
C     -7.150800    0.354200   -0.026900
C      3.560200   -0.466600    0.855100
N      3.270400   -1.293700    1.876700
S      4.686900   -1.598500    2.675400
N      5.750400   -0.704100    1.774600
C      5.036300   -0.115600    0.800200
