26

C     -7.215200   -0.244500    0.068700
C     -5.727400   -0.099900    0.169200
C     -4.917900   -0.270900   -0.975300
C     -3.507000   -0.153600   -0.968100
C     -2.743100    0.150500    0.184000
C     -1.279600    0.259500    0.159600
C     -0.499400   -0.759900   -0.404200
C      0.875400   -0.595100   -0.411600
S      2.042100   -1.736500   -1.067800
O      1.895000   -1.762400   -2.507000
O      2.053200   -2.917200   -0.232100
C     -0.618800    1.398900    0.683900
C      0.780800    1.535300    0.661900
C      1.547200    0.524900    0.105400
C      3.002900    0.441800   -0.032800
C      3.968800    1.351900    0.370100
C      5.322500    1.060800    0.135400
C      3.434100   -0.741100   -0.659800
C      4.757600   -1.059800   -0.905900
C      5.723400   -0.130400   -0.509200
C      7.182400   -0.421700   -0.711400
C     -3.505100    0.333200    1.378100
N     -3.027800    0.617300    2.604500
S     -4.328500    0.710400    3.624000
N     -5.570200    0.406900    2.571700
C     -5.017500    0.204700    1.363900
