19

C     -5.064800   -0.636800    0.081500
C     -3.581800   -0.430800    0.031700
C     -2.791500   -0.674100    1.176200
C     -1.385900   -0.508100    1.213900
C     -0.607600   -0.078100    0.112800
C      0.849400    0.084000    0.179000
C      1.474000    1.275800   -0.232200
C      2.864500    1.435200   -0.161100
C      3.670800    0.408100    0.337400
C      5.160800    0.549700    0.391700
C      3.059400   -0.780300    0.739000
F      3.813100   -1.788100    1.204900
C      1.676100   -0.938400    0.666800
F      1.139000   -2.101600    1.071200
C     -1.350000    0.178700   -1.079600
N     -0.855800    0.583100   -2.264900
S     -2.136100    0.718200   -3.305600
N     -3.389200    0.284800   -2.314400
C     -2.856800   -0.001600   -1.114400
