28

C     -9.423700    0.645100    0.451300
C     -7.933900    0.535600    0.321900
C     -7.362600   -0.252100   -0.680000
C     -5.971100   -0.380900   -0.779700
C     -5.106600    0.268100    0.120700
C     -5.704400    1.035400    1.137600
C     -7.093700    1.167000    1.240700
C     -3.635700    0.154400    0.031200
N     -2.946300    0.331300    1.189500
C     -1.600600    0.238100    1.145500
N     -0.932800    0.380900    2.374000
C     -0.927300   -0.025400   -0.067400
C      0.532900   -0.140900   -0.178100
C      1.124900   -1.353900   -0.556300
C      2.517500   -1.482700   -0.653400
C      3.372100   -0.399100   -0.387900
C      2.767700    0.816300   -0.018500
C      1.376700    0.947900    0.076900
C      4.841800   -0.506900   -0.482400
N      5.555700    0.324200    0.322300
C      6.899800    0.254400    0.266300
N      7.603700    1.122800    1.110400
C      7.543400   -0.648000   -0.596900
C      9.037600   -0.738700   -0.667500
N      6.850100   -1.480900   -1.413600
C      5.500900   -1.384700   -1.337300
N     -1.601000   -0.213000   -1.232100
C     -2.950100   -0.107800   -1.151800
