18

C      5.652200   -0.171900   -0.865300
C      4.171100   -0.156300   -0.629300
C      3.311500   -0.868800   -1.472700
C      1.929100   -0.828900   -1.271700
C      1.377100   -0.067600   -0.230100
C     -0.083600   -0.023600   -0.015700
C     -0.870500    0.973100   -0.653800
C     -0.222200    1.991000   -1.571400
C     -2.264900    1.051200   -0.399500
C     -3.090400    2.153300   -1.028600
C     -2.890500    0.075700    0.416200
C     -2.102200   -0.881600    1.102100
C     -2.754200   -1.841100    2.074900
C     -0.707600   -0.962300    0.849900
C      0.116000   -2.025600    1.549400
C     -4.394000    0.085100    0.591100
C      2.243300    0.655900    0.602500
C      3.625800    0.616400    0.402000
