28

C      8.063000    0.257600   -0.893600
C      6.601300    0.392200   -0.577600
C      6.154600    1.423000    0.278600
C      4.799600    1.560700    0.621400
C      3.879600    0.655500    0.113900
C      4.356900   -0.367700   -0.725200
C      5.683100   -0.533000   -1.082400
C      2.432200    0.597100    0.330900
C      1.630200    1.434600    1.088700
C      0.248300    1.184500    1.150900
C     -0.357200    0.100800    0.466600
C     -1.812600   -0.123300    0.545300
C     -2.584400   -0.134600   -0.628900
C     -3.969100   -0.340400   -0.586200
C     -4.543500   -0.495000    0.676700
C     -6.010000   -0.697200    0.873000
O     -6.693200    0.257300    0.186100
C     -8.109000    0.184700    0.356800
O     -6.503500   -1.566200    1.574300
N     -3.825300   -0.509500    1.831800
C     -4.755000   -0.360000   -1.862100
C     -2.495500   -0.334500    1.753200
N     -1.839100   -0.347000    2.984800
C      0.456500   -0.744900   -0.299700
C      1.812900   -0.470600   -0.340800
S      3.018900   -1.390300   -1.232800
O      2.789100   -1.190900   -2.647200
O      3.159200   -2.686900   -0.607000
