25

C     -7.063900    0.446700   -0.258200
C     -5.595700    0.136000   -0.209600
C     -5.160000   -1.194200   -0.019900
C     -3.795900   -1.518200    0.060900
C     -2.854300   -0.504800   -0.038200
C     -3.319600    0.811000   -0.213400
C     -4.654300    1.165400   -0.296600
C     -1.393800   -0.598300    0.019000
C     -0.597900   -1.720000    0.181500
C      0.800100   -1.568500    0.209100
C      1.431100   -0.305600    0.074800
C      2.900700   -0.183700    0.116200
C      3.522200    0.770700    0.943800
C      4.916800    0.898400    0.992100
C      3.734700   -1.002300   -0.660300
F      3.201800   -1.923400   -1.480200
C      5.122200   -0.875500   -0.611700
F      5.882800   -1.672600   -1.377800
C      5.731500    0.065800    0.219300
C      7.222600    0.207600    0.236500
C      0.620500    0.826700   -0.091500
C     -0.752100    0.644100   -0.113000
S     -1.953400    1.915500   -0.303100
O     -1.940100    2.736800    0.888000
O     -1.863100    2.436600   -1.649400
