27

C      7.451400    0.365800    0.499300
C      5.999400    0.094000    0.230800
C      5.610700   -0.567700   -0.954900
C      4.260100   -0.810800   -1.254000
C      3.284000   -0.381300   -0.367100
C      3.701800    0.286300    0.798000
C      5.021900    0.542800    1.123400
C      1.829000   -0.517200   -0.464500
C      1.075600   -1.113800   -1.463200
C     -0.325200   -1.127100   -1.346500
C     -0.996400   -0.549200   -0.239200
C     -2.472000   -0.589700   -0.149900
C     -3.112400   -1.841100   -0.125000
C     -4.495200   -1.930900   -0.037800
C     -3.241500    0.589400   -0.085000
N     -2.644900    1.807900   -0.112700
C     -3.436900    2.896000   -0.046100
C     -4.803900    2.794400    0.043100
N     -5.430800    1.601400    0.068300
C     -4.658800    0.492500    0.004500
C     -5.267600   -0.767600    0.026400
C     -6.766300   -0.878500    0.123100
C     -0.231500    0.051600    0.769900
C      1.144400    0.050300    0.624000
S      2.297700    0.741900    1.757200
O      2.174300    2.183100    1.733000
O      2.291600   -0.053700    2.966000
