32

C     -8.597000   -1.557900    0.639500
C     -7.168500   -1.095400    0.635300
C     -6.527600   -0.766500    1.850300
C     -5.183800   -0.359900    1.887900
C     -4.466400   -0.289400    0.703100
C     -5.128400   -0.635900   -0.488700
C     -6.449200   -1.040600   -0.561900
C     -3.069900    0.101100    0.495900
C     -2.129100    0.500700    1.431500
C     -0.833800    0.834300    0.998500
C     -0.455600    0.777100   -0.366200
C      0.910400    1.136600   -0.781800
C      1.121500    2.158000   -1.741200
C      2.405100    2.520000   -2.150200
C      2.025600    0.466700   -0.229300
C      3.312800    0.811800   -0.625400
C      4.591400    0.247000   -0.184500
C      5.704500    0.846600   -0.800700
C      7.017500    0.497700   -0.549700
C      7.232100   -0.521800    0.375400
C      6.147400   -1.166200    1.010500
C      6.410200   -2.241200    2.027500
C      4.823800   -0.768000    0.735000
C      3.458000    1.834900   -1.577600
S      5.165600    2.096300   -1.915600
O      5.546600    3.386500   -1.383300
O      5.439500    1.661000   -3.267500
C     -1.408100    0.373300   -1.310700
C     -2.673400    0.050300   -0.851400
S     -4.022800   -0.480000   -1.848300
O     -4.449700    0.631800   -2.669400
O     -3.725100   -1.800800   -2.357700
