24

C     -7.076500    0.221700    0.209300
C     -5.598600   -0.019200    0.099000
C     -5.115500   -1.288800   -0.288100
C     -3.740000   -1.559500   -0.372000
C     -2.834200   -0.557500   -0.057100
C     -3.345900    0.691700    0.337700
C     -4.693100    0.992200    0.431600
C     -1.370300   -0.605000   -0.067800
C     -0.535500   -1.659200   -0.401200
C      0.856900   -1.474800   -0.337200
C      1.440200   -0.244800    0.058500
C      2.903200   -0.091000    0.114600
C      3.707200   -0.394500   -0.997800
C      5.099000   -0.249200   -0.950100
C      3.538200    0.367900    1.277700
C      4.924000    0.508800    1.319500
F      5.492400    0.955700    2.448800
C      5.722200    0.194800    0.219200
C      7.206300    0.385600    0.281400
C      0.593200    0.819400    0.396000
C     -0.772600    0.605800    0.321300
S     -2.018800    1.790900    0.693000
O     -1.998200    2.047700    2.116500
O     -1.988800    2.823100   -0.320100
