30

C     -9.065500    0.265800    0.235800
C     -7.592500    0.187800   -0.044900
C     -7.134700   -0.066200   -1.356700
C     -5.765800   -0.176300   -1.650900
C     -4.841900   -0.042000   -0.625200
C     -5.329300    0.197000    0.672300
C     -6.669200    0.310600    0.997300
C     -3.380600   -0.119600   -0.688300
C     -2.566800   -0.341200   -1.787500
C     -1.172700   -0.378300   -1.609100
C     -0.566800   -0.196600   -0.340300
C      0.898000   -0.245000   -0.192800
C      1.498200   -1.100900    0.733800
C      2.890300   -1.154500    0.880400
C      1.725700    0.570800   -0.982600
C      3.128100    0.514900   -0.832200
S      4.289100    1.430100   -1.701800
C      3.734800   -0.336500    0.089100
C      5.181400   -0.220700    0.063600
C      5.611600    0.716400   -0.874900
C      6.980100    0.995900   -1.073000
C      7.940900    0.327200   -0.302300
C      7.531900   -0.623000    0.629200
C      6.172900   -0.896200    0.820600
C      9.401300    0.592300   -0.525500
C     -1.392700    0.028100    0.769400
C     -2.760700    0.059000    0.560100
S     -3.982800    0.321000    1.798100
O     -4.003100   -0.830700    2.673500
O     -3.887700    1.689300    2.257600
