30

C     -9.184600   -0.163600   -0.517100
C     -7.692800   -0.314000   -0.596400
C     -7.127800   -1.500700   -1.113700
C     -5.737300   -1.689000   -1.174400
C     -4.899300   -0.688300   -0.705400
C     -5.492100    0.475700   -0.184100
C     -6.856100    0.693900   -0.108700
C     -3.435400   -0.659600   -0.663700
C     -2.533100   -1.621300   -1.089000
C     -1.156000   -1.374300   -0.950900
C     -0.655800   -0.172100   -0.391000
C      0.794300    0.051600   -0.265500
C      1.396000    1.204800   -0.825700
C      2.772700    1.445600   -0.723400
C      1.606700   -0.874400    0.412800
C      2.968500   -0.628600    0.510900
C      3.553800    0.523100   -0.052700
C      4.976600    0.499800    0.212400
C      5.975400    1.395700   -0.124900
C      7.287200    1.112300    0.273300
C      5.282100   -0.667400    0.943700
C      4.024600   -1.474900    1.192800
C      6.577500   -0.956500    1.342700
C      7.598100   -0.061400    0.993200
C      9.010100   -0.317900    1.434500
C     -1.570300    0.798700    0.038500
C     -2.918900    0.524500   -0.110400
S     -4.240100    1.589200    0.353600
O     -4.234600    2.738600   -0.524900
O     -4.282600    1.669900    1.797400
