30

C     -9.102600   -0.303200   -0.041000
C     -7.626900   -0.029700    0.002800
C     -7.136600    1.098100    0.697500
C     -5.761200    1.368500    0.785600
C     -4.862400    0.500500    0.183600
C     -5.380600   -0.620600   -0.489300
C     -6.727800   -0.917300   -0.595000
C     -3.400000    0.573100    0.144200
C     -2.560700    1.529500    0.692700
C     -1.171400    1.395200    0.525900
C     -0.597100    0.313000   -0.186800
C      0.863300    0.208400   -0.342800
C      1.441400    0.131500   -1.618900
C      2.829300    0.032400   -1.794000
C      1.700700    0.182700    0.788600
C      3.086100    0.080700    0.597500
C      3.669900    0.006500   -0.664600
C      5.086100   -0.085500   -0.478300
C      6.185800   -0.187500   -1.353400
C      7.481800   -0.262900   -0.827100
C      5.329000   -0.067600    0.893500
N      4.107200    0.028700    1.517100
C      6.617600   -0.143300    1.438200
C      7.704000   -0.228600    0.553400
C      9.101000   -0.344900    1.092600
C     -1.447500   -0.652800   -0.740700
C     -2.810000   -0.492300   -0.557400
S     -4.061100   -1.572900   -1.159000
O     -4.102900   -1.470900   -2.601500
O     -3.979500   -2.822300   -0.434300
