26

C      7.137500   -0.389100   -0.097300
C      5.659200   -0.135000   -0.163300
C      5.166800    1.008100   -0.831000
C      3.789700    1.262000   -0.939200
C      2.891700    0.362100   -0.384800
C      3.412200   -0.773300    0.261500
C      4.761000   -1.054400    0.386000
C      1.428200    0.411800   -0.375000
C      0.585500    1.365400   -0.918300
C     -0.805500    1.197900   -0.790900
C     -1.392400    0.090000   -0.120300
C     -2.856100   -0.020400   -0.036300
C     -3.580400   -0.637700    1.023200
N     -3.094400   -1.217200    2.137300
S     -4.390900   -1.760100    3.011100
N     -5.639400   -1.285100    2.032500
C     -5.091700   -0.672300    0.969000
N     -3.601000    0.534800   -1.052700
C     -4.969900    0.476000   -1.060700
C     -5.811100   -0.103900   -0.108200
C     -7.295600   -0.081500   -0.262200
C     -0.527400   -0.874600    0.417800
C      0.838400   -0.682100    0.278300
S      2.092800   -1.764600    0.872500
O      2.106300   -1.708900    2.317900
O      2.043800   -2.991000    0.106600
