29

C     -7.928900   -0.482300   -0.951800
C     -6.493700   -0.216300   -0.600400
C     -6.159800    0.868100    0.241100
C     -4.826000    1.164400    0.566300
C     -3.811900    0.378000    0.040200
C     -4.175300   -0.685700   -0.805000
C     -5.477300   -1.004700   -1.146800
C     -2.364800    0.493000    0.234500
C     -1.660200    1.404200    1.004300
C     -0.258400    1.316800    1.052000
C      0.464000    0.326400    0.340000
C      1.936600    0.262600    0.422200
C      2.700400    0.328200   -0.756400
C      4.101300    0.310800   -0.721200
C      4.868700    0.387500   -2.003600
N      6.198300    0.764400   -1.979900
O      6.749700    0.964500   -3.250000
N      4.262800    0.092400   -3.113400
C      4.764300    0.229600    0.508200
C      4.037400    0.172700    1.705000
C      4.768100    0.083300    3.014900
C      2.630900    0.150800    1.647000
O      1.939100    0.073800    2.835100
C      1.573700   -1.280900    3.110100
C     -0.251000   -0.588800   -0.444800
C     -1.630600   -0.477500   -0.469000
S     -2.730500   -1.526800   -1.354600
O     -2.702500   -2.839300   -0.746000
O     -2.566300   -1.283200   -2.770800
