23

C      6.943500    0.311800    0.370600
C      5.459300    0.415200    0.168100
C      4.861600    1.675500   -0.054000
C      3.473500    1.814200   -0.216600
C      2.669500    0.686100   -0.147500
C      3.292800   -0.552600    0.087900
C      4.655400   -0.725100    0.253100
C      1.214600    0.584400   -0.282100
C      0.289600    1.588700   -0.518300
C     -1.072600    1.254000   -0.612700
C     -1.535700   -0.078600   -0.475200
C     -2.970700   -0.390100   -0.583200
C     -3.917800    0.274200    0.216300
C     -5.288400   -0.009800    0.116900
C     -6.273300    0.685900    1.009300
C     -5.716300   -0.992400   -0.780600
C     -4.793400   -1.662100   -1.581600
C     -3.433300   -1.362000   -1.484300
C     -0.598000   -1.092100   -0.236300
C      0.735000   -0.729700   -0.147900
S      2.079500   -1.825900    0.143800
O      2.243500   -2.672300   -1.018100
O      1.988400   -2.317900    1.501100
