28

C      7.640400   -0.131000   -0.245800
C      6.157100    0.070100   -0.364000
C      5.634300    0.895200   -1.384300
C      4.251600    1.081600   -1.545000
C      3.378400    0.430900   -0.686200
C      3.929000   -0.394400    0.311200
C      5.284200   -0.600700    0.497200
C      1.914300    0.468700   -0.661800
C      1.046400    1.169400   -1.483300
C     -0.339100    1.055000   -1.270700
C     -0.883600    0.244700   -0.242300
C     -2.342000    0.150400   -0.048400
C     -3.189900   -0.151800   -1.125800
C     -4.546600   -0.225100   -0.878000
C     -5.649900   -0.513000   -1.796300
O     -5.573900   -0.741900   -2.980700
C     -5.100900   -0.016900    0.382600
N     -6.488100   -0.149900    0.350500
C     -6.931400   -0.451700   -0.921400
O     -8.068500   -0.631500   -1.295000
C     -4.304300    0.280500    1.472500
C     -4.872100    0.518200    2.836300
C     -2.917200    0.363900    1.236200
C     -0.002300   -0.464100    0.585500
C      1.355500   -0.329000    0.350300
S      2.637700   -1.115200    1.263500
O      2.591600   -2.534600    0.989000
O      2.664100   -0.545100    2.592900
