24

C      7.131800   -0.531400    0.309700
C      5.661100   -0.229600    0.291000
C      5.159400    0.889200    0.992100
C      3.786600    1.184600    1.022700
C      2.901600    0.350700    0.355700
C      3.430200   -0.762600   -0.322100
C      4.775000   -1.083300   -0.372300
C      1.444300    0.453200    0.249700
C      0.597500    1.411800    0.782500
C     -0.784600    1.309300    0.546400
C     -1.345700    0.257000   -0.220100
C     -2.798600    0.185800   -0.448700
C     -3.321400    0.088900   -1.748500
C     -4.699600    0.022000   -1.967800
C     -5.572000    0.051000   -0.883500
C     -5.091000    0.147000    0.423800
C     -6.033300    0.169600    1.592100
C     -3.703200    0.212200    0.628100
O     -6.921900   -0.014900   -1.082600
C     -0.486700   -0.711300   -0.756900
C      0.868400   -0.582200   -0.506000
S      2.126400   -1.670600   -1.078200
O      1.987100   -2.937400   -0.393900
O      2.236100   -1.530400   -2.514000
