26

C     -7.217700    0.281400    0.483300
C     -5.746100    0.103400    0.244500
C     -5.291300   -0.859900   -0.683100
C     -3.922100   -1.076100   -0.909100
C     -2.994400   -0.331600   -0.196100
C     -3.478000    0.610300    0.729900
C     -4.818100    0.848300    0.977800
C     -1.532000   -0.382200   -0.258400
C     -0.720300   -1.177100   -1.050300
C      0.676200   -1.051400   -0.941200
C      1.289400   -0.140700   -0.044400
C      2.749900   -0.021300    0.038400
C      3.423000    1.220000   -0.059600
C      4.828600    1.368000    0.021900
C      5.723200    0.292100    0.213000
C      7.198300    0.542600    0.288800
C      5.107300   -0.985600    0.323100
N      5.750700   -2.150200    0.510100
S      4.593700   -3.332100    0.585700
N      3.219200   -2.435200    0.370700
C      3.600900   -1.151300    0.235400
C      0.463400    0.663200    0.754000
C     -0.907200    0.516300    0.622100
S     -2.126300    1.418300    1.513800
O     -2.080500    1.009800    2.900600
O     -2.088500    2.795600    1.071800
