23

C      6.748000   -0.698700    0.292000
C      5.305600   -0.298000    0.177200
C      4.963400    1.046000   -0.090300
C      3.626300    1.451100   -0.234300
C      2.618200    0.505300   -0.120700
C      2.991300   -0.826700    0.132400
C      4.296900   -1.260200    0.279300
C      1.169400    0.687100   -0.234000
C      0.453600    1.848400   -0.473700
C     -0.950900    1.786300   -0.544000
C     -1.670400    0.573100   -0.381800
C     -3.146200    0.522500   -0.458800
N     -3.738200   -0.414700    0.325400
C     -5.088300   -0.520200    0.308600
C     -5.705600   -1.563200    1.190900
C     -5.891600    0.289400   -0.483800
C     -5.283500    1.241200   -1.291900
C     -3.896200    1.360400   -1.282300
C     -0.934300   -0.596500   -0.129100
C      0.445400   -0.504200   -0.066400
S      1.553400   -1.838700    0.226000
O      1.537600   -2.715900   -0.924500
O      1.398400   -2.286100    1.592900
