20

C     -6.177800    0.953000   -0.708500
C     -4.824900    0.394500   -0.382400
C     -4.613300   -0.306900    0.807300
C     -3.342100   -0.799900    1.126400
C     -2.243400   -0.601900    0.271700
C     -0.896200   -1.119200    0.589900
N      0.142200   -0.350800    0.168900
C      1.418500   -0.754900    0.424600
C      2.506300    0.133400   -0.053300
N      3.784300   -0.292600    0.159200
C      4.808300    0.488300   -0.262100
C      6.199600   -0.011500   -0.012400
C      4.610000    1.705900   -0.901200
C      3.309000    2.140000   -1.116700
C      2.247000    1.348000   -0.689700
C      1.676100   -1.945600    1.101900
C      0.612800   -2.735400    1.524000
C     -0.688100   -2.319300    1.265400
C     -2.471400    0.127400   -0.909000
C     -3.740100    0.621000   -1.232500
