24

C      5.252100   -1.671300    0.271000
C      4.139100   -0.686700    0.386800
C      4.285900    0.615800    0.790900
C      2.985500    1.253500    0.779100
C      2.432100    2.439900    1.050700
C      0.962600    2.534200    0.879200
C      0.172400    1.500700    0.446900
C     -1.283300    1.742800    0.393000
C     -1.821200    2.705000   -0.474100
C     -3.200200    2.919800   -0.524500
C     -4.052200    2.175100    0.289300
C     -3.528000    1.215700    1.153800
C     -2.149400    1.001000    1.207100
C      0.818000    0.250200    0.144300
C      0.638200   -1.061300   -0.295500
C     -0.606500   -1.689100   -0.696400
C     -1.504700   -1.054000   -1.561400
C     -2.696900   -1.682600   -1.929800
C     -2.991800   -2.957500   -1.449700
C     -2.092800   -3.608500   -0.606800
C     -0.902700   -2.978400   -0.236000
N      1.859200   -1.785300   -0.287400
C      2.749800   -0.908800    0.104600
N      2.151200    0.266100    0.354900
