16

C     -3.982100   -0.055500    0.442700
C     -2.617000    0.542800    0.551900
C     -2.349200    1.736100    1.192300
S     -0.698700    2.148800    1.159400
C     -0.293000    0.731100    0.287500
C      1.109100    0.505500   -0.048400
C      1.839400    1.357400   -0.907700
C      3.197600    1.145600   -1.240900
C      3.946900    0.064900   -0.746600
C      3.269000   -0.826100    0.120600
N      3.806800   -1.914100    0.693000
S      2.608400   -2.600300    1.613000
N      1.352000   -1.560800    1.317500
C      1.815900   -0.610600    0.484700
C     -1.411200   -0.045100    0.006700
C     -1.386700   -1.338800   -0.749600
