20

C     -1.555200   -0.483000   -3.347800
C     -0.631400   -0.646200   -2.189400
N      0.473800    0.016000   -2.056500
N      1.051600   -0.430900   -0.874500
C      2.282100    0.113400   -0.444100
N      2.824400   -0.325100    0.705300
C      3.997000    0.207400    1.099900
C      4.581500   -0.297500    2.384100
C      4.649600    1.176000    0.368700
C      4.037000    1.578000   -0.798400
C      4.666900    2.627200   -1.663200
N      2.864600    1.059600   -1.211700
C      0.315800   -1.408400   -0.204100
O      0.519700   -2.010300    0.837800
C     -0.903000   -1.613700   -1.072300
C     -2.217600   -1.370600   -0.330900
C     -2.350300    0.032500    0.283700
C     -3.680700    0.305800    1.013500
C     -4.884500    0.246200    0.073200
C     -3.890700   -0.619700    2.211800
