29

Si     6.260900   -2.360900    0.076400
C      7.210500   -0.748300    0.053300
C      6.370700    0.298600    0.153500
C      6.772900    1.689400    0.177400
C      5.822900    2.635200    0.292900
C      4.402500    2.302100    0.388800
C      3.936900    1.028800    0.364700
C      2.521200    0.850000    0.461900
C      1.690800    1.027300    1.561300
C      0.324600    0.756100    1.273300
N     -0.731100    0.831700    2.123400
C     -1.985300    0.536400    1.687500
C     -2.294900    0.144400    0.379200
C     -1.241400    0.059200   -0.508700
O     -1.644000   -0.325000   -1.738000
C     -2.991100   -0.497000   -1.660200
C     -3.788400   -0.894800   -2.728400
C     -5.155700   -1.024400   -2.480000
C     -5.701700   -0.766600   -1.214600
C     -7.080500   -0.905600   -0.994800
C     -7.636500   -0.652000    0.259900
C     -6.822800   -0.255200    1.316000
C     -5.447700   -0.109300    1.124200
C     -4.865000   -0.360600   -0.136700
C     -3.460900   -0.222600   -0.374000
C      0.179100    0.387100   -0.038700
S      1.606000    0.357700   -0.922100
C      4.931100   -0.048500    0.252000
C      4.680600   -1.374200    0.237600
