31

C      5.062600   -1.118100    2.430700
C      4.619100   -0.465500    1.170000
C      5.395600    0.141900    0.198800
C      6.833500    0.261400    0.165400
C      7.574700    1.423500    0.060200
C      8.979100    1.176600    0.043700
C      9.265500   -0.167000    0.129300
S      7.849000   -1.119900    0.225400
S      4.472400    0.817400   -1.082200
C      2.992800    0.240700   -0.359700
C      1.602600    0.296700   -0.709800
C      1.152800    0.981100   -1.951000
C      0.830800   -0.353100    0.236700
C     -0.598800   -0.543800    0.200400
C     -1.325000   -1.147400   -0.805000
C     -2.725600   -1.153300   -0.533900
C     -3.040200   -0.553100    0.670800
C     -4.354600   -0.379300    1.239900
S     -4.648500   -0.510500    2.951800
C     -6.337900   -0.206100    2.795500
C     -6.646700   -0.022400    1.481000
C     -5.545300   -0.122600    0.609500
C     -6.020800    0.104400   -0.733700
O     -5.358900    0.118300   -1.757700
N     -7.386200    0.307200   -0.597400
C     -8.249000    0.606200   -1.710700
C     -7.828800    0.263400    0.712900
O     -8.953500    0.433300    1.149400
S     -1.620900    0.017300    1.451900
S      1.749400   -0.997400    1.535200
C      3.229300   -0.415400    0.816200
