33

C     -5.160100   -2.912200    0.315300
C     -5.297400   -1.410400    0.179400
C     -6.567000   -0.779800    0.216500
C     -7.888100   -1.339900    0.373300
C     -8.888400   -0.400400    0.359700
S     -8.271500    1.166700    0.159700
C     -6.629400    0.608300    0.086600
C     -5.470200    1.401600   -0.080200
C     -5.607200    2.903500   -0.214500
C     -4.201400    0.769000   -0.117900
C     -2.878600    1.325900   -0.275000
C     -1.860200    0.395600   -0.259500
C     -0.444400    0.662300   -0.406900
C      0.127900    1.774000   -0.997100
C      1.553700    1.743100   -0.973000
C      2.054500    0.609500   -0.362600
C      3.441800    0.211800   -0.135400
C      3.926900   -1.095400   -0.242500
N      5.212100   -1.532800   -0.050500
C      6.216800   -0.666900    0.293700
C      7.567000   -1.198100    0.477900
C      8.797400   -0.567300    0.379400
C      9.897300   -1.437200    0.639100
C      9.482200   -2.715000    0.928600
S      7.782200   -2.859800    0.885300
C      5.883200    0.706100    0.440400
N      6.692400    1.730000    0.774300
S      5.763400    3.096700    0.813500
N      4.289600    2.475500    0.396500
C      4.447900    1.150100    0.215600
S      0.773300   -0.396400    0.176400
S     -2.501600   -1.170100   -0.061700
C     -4.139100   -0.616100    0.012100
