21

C     -2.957000   -0.953200   -0.172600
C     -2.395600    0.431700    0.063400
C     -3.139800    1.308500    0.762700
C     -2.628400    2.671900    0.997100
O     -3.258800    3.479900    1.668600
C     -1.341800    3.032600    0.373000
C     -0.652300    2.101700   -0.312700
C      0.639800    2.516600   -0.976100
N     -1.110400    0.767900   -0.427500
C     -0.387800   -0.171300   -1.241700
C     -0.773800   -0.242500   -2.605700
C     -0.148000   -1.104100   -3.500100
C      0.876400   -1.918400   -3.048300
C      1.274400   -1.856400   -1.709600
C      0.680200   -0.982300   -0.766900
N      1.193100   -1.044800    0.540000
C      0.399700   -0.599000    1.698500
C      1.049200   -1.109700    2.997700
O      2.411000   -0.666400    3.118100
C      3.181800   -1.146600    2.005700
C      2.616800   -0.645800    0.666200
