18

C      3.960700    0.833400    1.671000
C      2.652100    0.390900    1.072600
C      2.534700   -0.813300    0.504400
C      1.262500   -1.284000   -0.095200
O      1.310400   -2.412800   -0.579100
N      0.165700   -0.398500   -0.041800
C      0.314800    0.879000    0.568500
C     -0.855000    1.756000    0.595800
C     -2.039700    1.419500    0.082400
C     -2.207500    0.116900   -0.544800
C     -3.468200   -0.206600   -1.075900
C     -3.681000   -1.436900   -1.684900
C     -2.634900   -2.343800   -1.763500
C     -1.376700   -2.023100   -1.234400
C     -1.126300   -0.788200   -0.611700
C      1.496000    1.274800    1.107100
C      1.651300    2.559900    1.722600
N      1.782000    3.599500    2.222100
