17

C     -3.832100   -1.163200   -0.892700
C     -2.817200   -0.665900    0.089000
C     -2.994500    0.439000    0.827100
C     -1.919600    0.860900    1.772600
O     -2.079300    1.898600    2.407000
N     -0.792000    0.076600    1.887400
C     -0.702000   -0.965400    1.131400
S      0.703900   -1.997200    1.217500
C      2.008300   -0.746300    1.395500
C      2.224700    0.053000    0.133500
C      1.758300    1.374300    0.036700
C      1.944200    2.113400   -1.134800
C      2.598500    1.539600   -2.222600
C      3.060800    0.232600   -2.130000
F      3.687000   -0.320700   -3.177000
C      2.881800   -0.512800   -0.968800
N     -1.651500   -1.369600    0.243700
