23

C      8.128000   -0.267200   -0.802800
C      6.679700   -0.568700   -0.626500
C      5.834400   -0.161300    0.384300
C      4.486700   -0.632600    0.219900
C      3.397300   -0.363400    1.161600
O      3.620400   -0.344900    2.371200
N      2.122300   -0.123100    0.653100
C      1.022800    0.020500    1.605900
C     -0.354800   -0.132700    0.936900
N     -0.593300    0.742000   -0.235100
C     -1.569200    1.800900    0.044600
C     -3.008100    1.357300    0.113500
C     -3.502400    0.163600   -0.257400
C     -4.918900   -0.213100   -0.157500
C     -5.955400    0.683500   -0.447800
C     -7.290200    0.277000   -0.369100
C     -7.601600   -1.032600   -0.009700
C     -6.579400   -1.938000    0.265800
C     -5.244900   -1.531600    0.186300
C      0.660300    1.316900   -0.761000
C      1.843100    0.331300   -0.714500
C      4.397000   -1.444400   -0.896500
S      5.866600   -1.552100   -1.763000
