22

C      1.784100    2.131000    2.285900
C      0.955000    1.027000    1.721600
C     -0.404200    0.848200    1.881400
C     -0.804400   -0.262300    1.099400
C     -2.155500   -0.789900    0.967400
S     -2.576400   -1.920000    2.130600
N     -2.954400   -0.308600   -0.067500
C     -2.477900    0.672200   -1.056500
C     -3.264900    0.568500   -2.366900
O     -4.674400    0.770600   -2.210600
C     -5.174900    0.399000   -0.920100
C     -4.362200   -0.706400   -0.237200
C      0.339600   -0.751600    0.473500
C      0.455400   -1.964600   -0.393200
N      1.424400    0.037200    0.861300
C      2.777500   -0.128900    0.441900
C      3.814800   -0.071700    1.382100
C      5.140900   -0.234100    0.971500
C      5.429300   -0.449300   -0.374600
Cl     7.062400   -0.646100   -0.878100
C      4.403200   -0.505900   -1.315900
C      3.075300   -0.347300   -0.909500
