21

C     -4.363900   -0.291600    1.489100
C     -3.151500    0.028200    0.667900
C     -3.109700    1.181800   -0.098600
C     -1.967600    1.462000   -0.856700
C     -1.967200    2.713400   -1.689900
C     -0.883400    0.561700   -0.783600
S      0.662400    0.924800   -1.580700
O      0.828400    2.370200   -1.602700
O      0.633100    0.206100   -2.845700
C      2.069000    0.339100   -0.635500
C      2.891700   -0.633100   -1.228600
C      4.010600   -1.113800   -0.551400
C      4.320900   -0.618200    0.710800
C      3.516700    0.361700    1.297100
C      2.378300    0.858700    0.638200
C      1.581000    1.940500    1.310800
C     -1.012400   -0.609000   -0.029400
N     -0.023300   -1.611800   -0.038900
C     -0.348700   -2.604800   -1.071600
C      0.154700   -2.214500    1.286800
N     -2.132100   -0.856100    0.697500
