20

C      3.470900    3.141000    1.322800
C      2.843900    1.846700    0.887600
C      3.668100    0.783600    0.510700
C      3.115000   -0.439500    0.092800
C      4.013100   -1.571200   -0.309200
C      1.704800   -0.517200    0.103100
C      0.711400   -1.489400   -0.196500
N      0.913600   -2.760000   -0.609500
C     -0.524900   -0.902100    0.007200
C     -1.861400   -1.447600   -0.118300
O     -2.072100   -2.657500   -0.233400
C     -3.052900   -0.549500   -0.099300
C     -4.247000   -1.042200    0.448100
C     -5.394400   -0.247100    0.470500
C     -5.359500    1.040200   -0.062900
C     -4.181900    1.531300   -0.625400
C     -3.031800    0.738200   -0.650800
O     -0.343600    0.379800    0.445600
C      0.995100    0.615300    0.499100
N      1.495600    1.799500    0.889700
