18

C     -3.975400   -0.762800    1.975000
C     -3.018400   -0.267800    0.957100
C     -2.757500   -0.790000   -0.316300
C     -1.818100    0.050100   -0.882400
C     -1.309000   -0.000400   -2.275100
N     -1.490800    0.992600    0.097200
C     -0.534400    2.037100    0.167300
O     -0.624400    2.900300    1.042100
C      0.613900    1.996000   -0.792800
C      1.598000    0.937000   -0.438900
C      2.189600    0.669700    0.792100
N      3.011700   -0.388900    0.555900
C      3.878900   -1.172400    1.279900
C      4.449100   -2.115200    0.509000
S      3.906500   -2.048500   -1.179800
C      2.894600   -0.701200   -0.763700
N      2.062400    0.065200   -1.412800
N     -2.293800    0.823100    1.195000
