18

C      1.944300   -2.424300    0.778000
C      1.995200   -0.945900    0.536900
C      3.165000   -0.243500    0.753900
C      3.129900    1.115600    0.505900
C      4.355900    1.953100    0.712700
N      2.018200    1.742000    0.074400
C      0.928600    0.978100   -0.103500
O     -0.189800    1.662600   -0.567800
C     -1.367600    0.959400   -0.591100
C     -2.089500    0.750300    0.587100
C     -3.307400    0.068900    0.541000
C     -3.798500   -0.382900   -0.693000
N     -5.077300   -1.103000   -0.745700
O     -5.679800   -1.288300    0.321500
O     -5.480400   -1.483100   -1.854500
C     -3.084200   -0.150000   -1.877800
C     -1.867000    0.532100   -1.822800
N      0.867200   -0.350300    0.105800
