26

Si     2.523000    0.218600   -1.404500
C      3.595800    0.035800    0.124800
C      2.859800   -0.126900    1.247700
C      1.405900   -0.124900    1.027200
C      0.445500   -0.273600    2.012400
C     -0.920900   -0.253300    1.665900
C     -1.887700   -0.402100    2.651300
N     -3.222700   -0.400100    2.447500
C     -3.682700   -0.243900    1.205600
C     -5.100800   -0.256100    1.097000
C     -5.852800   -0.113200   -0.086700
C     -5.002000    0.045200   -1.160100
C     -5.417900    0.209200   -2.454800
N     -4.283400    0.331700   -3.217600
C     -3.160000    0.246500   -2.416400
C     -3.570800    0.066100   -1.115100
C     -2.790300   -0.078500    0.084900
C     -1.358000   -0.083900    0.328100
C     -0.346200    0.065300   -0.654000
C      1.005000    0.044500   -0.306100
C      5.051200    0.074900    0.035500
N      5.728900   -0.064100    1.179100
C      7.052500   -0.022500    1.052000
N      7.725200    0.140700   -0.083100
C      6.945900    0.268000   -1.152500
N      5.614400    0.244300   -1.162000
