31

C     -0.770100    1.699600   -2.526100
C     -0.101600    0.856100   -1.489200
C      1.302600    0.942900   -1.192200
C      1.725300    0.061200   -0.213800
C      3.063400   -0.114300    0.316700
C      3.458200   -0.867800    1.405600
C      4.873300   -0.832300    1.661800
C      5.502600   -1.607800    2.774200
C      5.525700   -0.017900    0.746300
C      6.911400    0.338200    0.627900
S      7.915300    0.584700    2.021700
C      9.258500    0.995700    1.015500
C      8.924000    0.935700   -0.400100
C      7.654300    0.580800   -0.613600
S      4.425400    0.636500   -0.396500
S      0.403200   -0.878900    0.341100
C     -0.715000   -0.101000   -0.696100
C     -2.104000   -0.485200   -0.664800
C     -2.623400   -1.749500   -0.852700
C     -4.044200   -1.775800   -0.737300
C     -4.581900   -0.532700   -0.459500
C     -5.980200   -0.151000   -0.261100
C     -6.559000    1.013800   -0.820000
C     -7.913200    1.383600   -0.636600
C     -8.816200    0.624400    0.123200
C     -8.302700   -0.557200    0.708900
N     -9.004400   -1.414900    1.465800
S     -7.953400   -2.618000    1.909300
N     -6.566900   -2.115700    1.153500
C     -6.856600   -0.965000    0.517500
S     -3.341700    0.649600   -0.336900
