20

C      6.676100    1.428800    1.111800
C      5.319400    0.928700    0.802900
C      4.871800   -0.262100    0.275500
C      3.464700   -0.139500    0.221100
C      2.501700   -1.239000   -0.307000
N      2.891700   -2.424400   -0.769400
N      1.764600   -3.144400   -1.152800
C      0.755600   -2.361400   -0.903700
S     -0.942300   -2.431900   -1.061300
C     -0.958800   -0.784700   -0.375800
C     -2.272600   -0.059300   -0.184100
C     -3.257700   -0.849600    0.680700
C     -4.515300   -0.034700    0.989700
C     -4.938400    0.893000   -0.151400
C     -4.418000    0.418800   -1.502200
C     -2.888600    0.362800   -1.528600
N      0.187800   -0.243600   -0.068300
N      1.136900   -1.171300   -0.381100
N      3.056900    1.047900    0.683100
N      4.194100    1.672600    1.027200
