21

C     -4.880800   -0.946800    2.358900
C     -4.090800   -0.098900    1.435000
C     -3.258300    0.970700    1.684300
C     -2.777300    1.375100    0.419300
C     -1.824400    2.486500    0.109700
N     -0.719700    1.942400   -0.657100
C      0.423100    1.525200   -0.007000
O      0.618700    1.727300    1.183800
N      1.279500    0.906100   -0.891500
C      2.518100    0.294500   -0.615000
C      3.024500    0.113400    0.686700
C      4.261500   -0.509700    0.900700
C      4.963000   -0.941600   -0.201200
C      4.474700   -0.773500   -1.473500
C      3.260200   -0.163800   -1.713600
O      5.314900   -1.269600   -2.421600
C      6.390500   -1.765300   -1.596600
O      6.171100   -1.563800   -0.185400
N     -3.268900    0.603800   -0.565100
N     -4.061900   -0.276800    0.076000
C     -4.767200   -1.281100   -0.685900
