17

C      2.848500    2.049700    1.482700
C      2.358400    0.870900    0.689500
C      0.977700    0.711700    0.481900
C      0.482100   -0.378700   -0.238200
N     -0.923000   -0.450200   -0.470500
C     -1.449600    0.154700   -1.714900
C     -2.699300    0.962900   -1.443200
O     -3.085600    1.384700   -0.363100
O     -3.382900    1.255400   -2.570000
S     -1.809600   -1.726700    0.201500
C     -2.135400   -1.093700    1.833000
O     -0.964300   -2.894600    0.333200
O     -3.077500   -1.813000   -0.495100
C      1.360800   -1.302500   -0.798500
C      2.734500   -1.160300   -0.600200
C      3.231200   -0.082600    0.140700
Br     5.114100    0.035700    0.359800
