21

C     -0.622100    4.827100   -1.778500
C     -0.563000    3.444000   -1.247000
C     -1.593400    2.481600   -1.223400
C     -1.043400    1.367400   -0.631500
N     -1.573200    0.118400   -0.338300
C     -2.864700   -0.250100   -0.630900
O     -3.735000    0.430600   -1.153700
C     -3.181200   -1.642400   -0.207400
C     -2.317200   -2.811500   -0.623600
C     -3.677200   -2.637100   -1.231700
N      0.274900    1.704800   -0.333100
C      1.246200    0.893800    0.274600
N      1.000800   -0.347800    0.650000
C      2.152000   -0.880400    1.211600
C      2.289600   -2.183700    1.731100
C      3.514200   -2.591800    2.270500
C      4.598300   -1.720200    2.298100
C      4.488600   -0.422500    1.789500
C      3.255200   -0.022000    1.250000
S      2.813500    1.492600    0.556200
N      0.569100    2.979100   -0.708800
