21

C     -2.653400    3.609300    0.269300
C     -2.211700    2.176900    0.251800
C     -0.858400    1.846300    0.348600
C     -0.449700    0.500000    0.343000
O      0.927100    0.261900    0.469900
C      1.668900    0.523200   -0.683600
O      1.202200    0.886000   -1.757400
C      3.067000    0.285500   -0.401500
C      3.740700   -0.111800    0.742100
C      5.115700   -0.176600    0.409200
C      5.204500    0.183600   -0.913400
O      3.975000    0.464700   -1.412800
C     -1.370800   -0.559900    0.296900
C     -1.058200   -2.003400    0.338600
C      0.350300   -2.504800    0.456300
C     -2.071100   -2.882200    0.276600
C     -3.484200   -2.498700    0.172900
O     -4.363800   -3.349800    0.117700
O     -3.754800   -1.145900    0.151600
C     -2.719100   -0.189700    0.213500
C     -3.146300    1.144000    0.192300
