21

C     -3.635400    0.355700    3.260800
C     -3.262000    0.402700    1.803800
C     -2.082700    1.079300    1.439000
C     -1.664900    1.169600    0.109100
O     -0.500400    1.859900   -0.071100
C      0.013400    2.023800   -1.394100
C      0.866700    0.827400   -1.831200
O      1.987400    0.565600   -0.981500
C      2.999800    1.572300   -1.032700
C      4.280600    1.072600   -0.337700
N      5.217700    0.368100   -1.243700
C      6.463900    0.023300   -0.538100
C      6.197900   -1.297200    0.172500
C      5.023600   -1.918200   -0.571200
C      4.708000   -0.938400   -1.691100
C     -2.437700    0.571700   -0.877700
C     -3.612900   -0.105900   -0.533900
C     -4.046400   -0.204800    0.801800
C     -5.334400   -0.955400    1.121200
C     -6.550600   -0.276400    0.483500
C     -5.249800   -2.427100    0.703600
