23

C      4.639100    2.625400    0.921800
C      3.511000    1.636300    0.817500
C      2.555400    1.588700    1.837800
C      1.514500    0.681600    1.736500
S      0.262600    0.591800    2.994100
C     -0.950600    1.734500    2.267900
C     -1.341600    1.385700    0.842300
O     -0.997100    2.139100   -0.074100
C     -2.181100    0.201800    0.592900
C     -2.829400   -0.634000    1.544700
C     -3.519800   -1.620600    0.871100
C     -4.345900   -2.725000    1.429500
N     -3.307300   -1.422100   -0.474600
C     -3.838000   -2.243100   -1.545000
C     -2.501500   -0.315000   -0.660300
C     -2.074300    0.178100   -2.004700
N      1.378900   -0.176300    0.709100
C      2.282500   -0.134700   -0.280100
C      2.124000   -1.010600   -1.345400
C      3.016800   -1.037400   -2.418400
C      4.097500   -0.167400   -2.433600
C      4.279000    0.723300   -1.376000
C      3.380000    0.756500   -0.284200
