13

C     -3.310000    0.404900   -0.387500
C     -2.438500   -0.732600    0.138900
C     -1.336600   -1.143800   -0.852300
C     -0.166900   -0.504100   -0.209600
C      1.126300   -0.354500   -0.682100
C      2.076200    0.249800    0.156500
C      3.457800    0.409700   -0.359200
O      3.852900    0.063900   -1.457300
O      4.282400    0.997200    0.525600
C      1.710800    0.679400    1.449700
C      0.401200    0.510700    1.910300
C     -0.513400   -0.077800    1.061100
O     -1.824800   -0.303600    1.383200
