19

C     -6.148400    0.643700   -2.000000
C     -4.853700    0.277300   -1.367100
C     -3.727800   -0.272400   -1.948600
C     -2.740600   -0.439000   -0.943000
C     -1.422500   -0.937900   -0.945800
C     -0.682600   -0.973200    0.248900
C      0.737500   -1.471000    0.245000
N      1.660500   -0.372600    0.086800
C      3.018600   -0.573500    0.182500
O      3.517200   -1.656700    0.464400
C      3.820900    0.680400   -0.122200
C      5.320100    0.541000    0.182400
C      6.098100    1.681800   -0.476700
C      5.585200    0.540100    1.690100
C     -1.258700   -0.493900    1.430400
C     -2.565800    0.004400    1.455700
C     -3.290300    0.020200    0.253500
N     -4.578000    0.443200   -0.027000
C     -5.476500    0.983000    0.972100
