21

C     -5.834400   -0.634400    0.860500
C     -4.396300   -0.386600    0.494200
C     -3.605200   -1.456100    0.050300
C     -2.263500   -1.266800   -0.296000
C     -1.687000    0.002000   -0.205200
C     -0.259100    0.280100   -0.563800
O      0.196500    1.407400   -0.358700
C      0.596800   -0.828600   -1.196500
C      0.287200   -0.925400   -2.685500
O      1.994800   -0.520600   -1.088300
C      2.501900   -0.648100    0.165800
O      1.894800   -1.086900    1.133000
C      3.921000   -0.189800    0.186100
C      4.554400   -0.169900    1.371000
O      5.869600    0.187000    1.562300
C      6.574500    0.304000    0.317200
C      5.710700    0.979200   -0.739900
O      4.528900    0.209000   -0.998300
C     -2.474400    1.073200    0.243700
C     -3.823700    0.894900    0.594700
C     -4.621800    2.078000    1.071200
