22

C      7.157000   -0.507100    1.463400
C      6.021700    0.162900    0.799400
C      5.858800    1.391200    0.202600
C      4.516300    1.436600   -0.251300
C      3.928600    0.229000    0.093600
C      2.594500   -0.334800   -0.087500
O      2.304000   -1.453300    0.324800
N      1.729900    0.507600   -0.754600
C      0.418100    0.277700   -1.074000
N     -0.276500    1.185500   -1.720100
C     -1.565300    0.726800   -1.914900
C     -1.832700   -0.533000   -1.417700
C     -3.100000   -1.324400   -1.461300
C     -4.169300   -0.765200   -0.548100
C     -5.207800    0.026700   -1.064700
C     -6.182900    0.552000   -0.215200
C     -6.119200    0.290200    1.148100
F     -7.055900    0.796200    1.960900
C     -5.098100   -0.487000    1.680200
C     -4.121800   -1.014200    0.833900
S     -0.413800   -1.153400   -0.681700
O      4.862100   -0.543400    0.737500
