28

Si    -4.914700    1.928100    2.299500
C     -5.965500    0.671200    1.392600
C     -5.206300   -0.076800    0.570900
C     -5.696000   -1.140700   -0.280300
C     -4.817800   -1.803900   -1.054700
C     -3.392100   -1.483500   -1.061800
C     -2.844200   -0.507700   -0.295400
C     -1.398300   -0.262100   -0.381800
C     -0.584900   -0.956500    0.451500
C      0.828900   -0.736400    0.401300
S      1.895500   -1.589800    1.428100
C      3.267600   -0.754300    0.729700
C      4.685000   -0.803200    0.960500
C      5.446800   -1.579600    1.867600
C      6.837400   -1.449400    1.908000
C      7.481100   -0.559100    1.060300
C      6.750200    0.217100    0.157300
C      5.346400    0.086500    0.115600
S      4.276700    0.950000   -0.921500
C      2.892700    0.133800   -0.244900
C      1.478400    0.150700   -0.441700
C      0.691900    0.928500   -1.351100
C      1.097900    1.846300   -2.249200
Si    -0.348400    2.571100   -3.181800
C     -1.476600    1.471700   -2.188300
C     -0.786000    0.710000   -1.313200
C     -3.760100    0.251400    0.570200
C     -3.419300    1.259200    1.399500
