19

C     -5.350800   -0.612100   -1.728800
C     -4.396200   -0.364900   -0.598200
C     -4.847900   -0.276500    0.717200
C     -3.941100   -0.062400    1.754100
C     -2.564600    0.063800    1.497400
C     -1.641500    0.292000    2.664700
C     -2.096400   -0.034000    0.169200
N     -0.710300    0.097900   -0.073700
C     -0.024600   -0.040000   -1.271200
O     -0.512300   -0.314000   -2.364500
C      1.461700    0.266000   -1.144700
S      2.218500   -0.725200    0.187600
C      3.907200   -0.172100    0.054800
C      4.910500   -0.910400    0.671900
C      6.226800   -0.465500    0.576400
C      6.499700    0.701300   -0.125000
C      5.439100    1.376600   -0.704300
N      4.153100    0.968100   -0.626300
C     -3.022100   -0.246900   -0.860400
