20

C     -3.971200    3.025100   -1.659600
C     -3.676600    1.658400   -1.116400
C     -4.653800    0.661500   -1.137000
C     -4.391000   -0.597600   -0.593600
C     -3.147100   -0.887900   -0.011000
C     -2.917600   -2.257300    0.568500
C     -2.161300    0.115100    0.015500
S     -0.544100   -0.149300    0.735900
C      0.355300   -0.600400   -0.786900
C      1.815800   -0.943900   -0.516700
O      2.384900   -1.796300   -1.195400
N      2.412500   -0.170000    0.459000
C      3.755600   -0.198600    0.903200
C      4.740700   -1.013300    0.349600
C      6.042400   -0.970900    0.854000
C      6.324600   -0.109300    1.901500
N      5.408900    0.700100    2.468700
C      4.158200    0.632600    1.957600
Cl     3.050400    1.702200    2.736900
C     -2.438400    1.380900   -0.524300
