20

C      2.348900   -2.205400   -0.694300
C      3.127300   -0.954000   -0.619300
C      4.468200   -0.657700   -0.708900
C      4.573200    0.746300   -0.551800
C      3.289100    1.229100   -0.374200
C      2.827400    2.582300   -0.166600
N      1.628200    3.057900    0.016700
C      0.563400    2.213300    0.032900
S     -0.405900    2.068800   -1.374300
C     -1.452200    0.925000   -0.649100
C     -1.131500    0.693000    0.680800
C      0.039800    1.448400    1.059900
C      0.649400    1.418500    2.358300
N      1.126300    1.369500    3.416200
C     -1.872900   -0.236200    1.612100
C     -3.372400   -0.329900    1.337100
C     -3.740700   -1.240400    0.164000
C     -2.886000   -1.101700   -1.097400
C     -2.565000    0.341900   -1.478400
O      2.411500    0.183800   -0.417900
