20

C      3.886300   -1.564400    1.598200
C      3.331000   -1.144700    0.280900
C      3.985500   -1.012600   -0.925100
C      3.111500   -0.584300   -1.966300
C      1.822900   -0.368600   -1.517600
C      0.687700    0.030900   -2.321800
N     -0.328200    0.794100   -2.032000
N     -0.305400    1.493500   -0.868100
C     -1.250000    1.457800    0.124400
C     -2.347700    0.472400    0.165200
C     -2.737500   -0.026600    1.415200
C     -3.778100   -0.952300    1.510000
C     -4.441600   -1.374000    0.358800
C     -4.071300   -0.865800   -0.885900
C     -3.029700    0.060100   -0.984000
N     -1.066500    2.358200    1.057600
N      0.029800    3.068500    0.641700
C      0.481500    2.597400   -0.589900
S      1.691700    3.322000   -1.465500
S      1.670600   -0.764300    0.138400
