24

Si    -4.485400   -3.063800    0.860000
C     -5.648700   -1.609800    0.658800
C     -4.980400   -0.526100    0.222400
C     -5.570500    0.770200   -0.043400
C     -4.776600    1.766000   -0.479700
C     -3.341900    1.580300   -0.691700
C     -2.714200    0.401500   -0.466800
C     -1.262200    0.335100   -0.713500
C     -0.786700   -0.014000   -1.983500
C      0.586800   -0.092500   -2.242900
C      1.485400    0.183900   -1.201300
C      1.005100    0.530600    0.071000
C     -0.368900    0.610800    0.336000
N      2.078600    0.751500    0.920100
C      3.232800    0.553800    0.214900
C      4.617100    0.560400    0.274700
Si     6.083300    0.839000    1.346000
C      7.187100    0.421900   -0.172800
C      6.447300    0.132300   -1.266100
C      5.050300    0.215300   -0.994200
O      3.987700   -0.002900   -1.830300
C      2.885100    0.215200   -1.050500
C     -3.525700   -0.722800    0.008800
C     -3.085800   -1.967200    0.284900
