18

C      6.548200   -0.591900    1.483900
C      5.389900   -0.340500    0.581500
C      5.386600   -0.171800   -0.785200
C      4.073300    0.049500   -1.295200
C      3.100300    0.041300   -0.309800
C      1.678000    0.246000   -0.498900
C      1.070100    0.850900   -1.584800
C     -0.351300    0.889100   -1.475900
C     -0.809500    0.316200   -0.305900
C     -2.195700    0.154200    0.152600
C     -3.183200   -0.281400   -0.742200
C     -4.511000   -0.430600   -0.328700
C     -2.572400    0.441600    1.471900
C     -3.900200    0.293600    1.886300
C     -4.881900   -0.132300    0.986100
C     -6.298300   -0.325000    1.440100
S      0.496300   -0.275300    0.632600
S      3.813700   -0.229800    1.230300
