25

C      9.204500    0.388200   -0.558700
C      7.719000    0.484200   -0.620500
C      6.945800    1.436500   -1.246300
C      5.550600    1.189500   -1.081100
C      5.283400    0.055300   -0.331200
C      3.991200   -0.493700    0.035700
C      3.724800   -1.617000    0.799400
C      2.329300   -1.864900    0.960400
C      1.546800   -0.922200    0.324800
C      0.081400   -0.847900    0.250200
C     -0.598600    0.358300    0.483700
C     -1.984100    0.366300    0.412300
C     -2.923300    1.536700    0.622300
C     -0.661900   -2.015400   -0.041000
C     -2.061400   -1.998100   -0.110700
C     -2.716500   -0.802000    0.116900
C     -4.127500   -0.478400    0.114000
C     -5.237500   -1.268900   -0.124900
C     -6.504100   -0.676000   -0.062900
C     -4.278300    0.892900    0.409600
C     -5.527800    1.489200    0.473000
C     -6.658900    0.692800    0.245500
C     -8.028600    1.307400    0.269800
S      2.520400    0.239300   -0.472300
S      6.755900   -0.691400    0.157900
