23

C     -5.915100    1.159200   -0.013300
C     -4.533400    0.575200   -0.019300
C     -3.797600    0.508000   -1.208200
C     -2.524400   -0.067200   -1.220600
C     -1.970300   -0.583600   -0.045400
C     -0.639900   -1.184700   -0.068300
C     -0.272900   -2.405600   -0.601700
C      1.112300   -2.572900   -0.402600
C      1.593100   -1.445300    0.237600
C      2.988600   -1.106300    0.688600
C      4.057700   -2.047900    0.141700
C      5.423500   -1.637000    0.612600
O      5.701300   -0.780500    1.434200
O      6.397800   -2.359900    0.024300
N      0.512400   -0.591800    0.428200
C      0.570100    0.712600    1.092800
C      0.706700    1.821400    0.115600
C     -0.200700    2.650800   -0.512800
C      0.554100    3.530700   -1.324600
C      1.872400    3.193500   -1.131400
O      1.976100    2.164600   -0.252700
C     -2.715600   -0.545100    1.136700
C     -3.988900    0.030200    1.149700
