30

Si    -5.337600    2.435700    1.384000
C     -6.363300    1.035100    0.681600
C     -5.579500    0.150100    0.038600
C     -6.043900   -1.050900   -0.625300
C     -5.142400   -1.845500   -1.232100
C     -3.713600   -1.535500   -1.239800
C     -3.199400   -0.433500   -0.643800
C     -1.741700   -0.229800   -0.710600
C     -1.169400    0.389000   -1.821400
C      0.206600    0.583600   -1.868700
C      1.016400    0.158300   -0.794500
C      2.405700    0.363200   -0.857100
O      3.058500    0.954000   -1.898400
C      4.378200    0.970900   -1.594300
C      5.367900    1.494100   -2.410900
C      6.637800    1.393100   -1.878300
N      6.928000    0.843000   -0.678000
C      5.924200    0.341700    0.090000
C      4.598600    0.391400   -0.351900
C      3.304200   -0.010400    0.138400
C      2.774000   -0.645700    1.303600
C      3.636900   -1.047600    2.349300
C      3.144000   -1.668100    3.494500
C      1.784100   -1.898800    3.617900
C      0.914600   -1.509300    2.595600
C      1.366600   -0.875200    1.411900
C      0.483700   -0.470100    0.354100
C     -0.924300   -0.647500    0.355700
C     -4.131600    0.472800    0.033400
C     -3.813700    1.614300    0.677100
