24

C      7.721000    1.286700    0.801400
C      6.327600    0.803100    0.533500
C      5.236300    1.661900    0.667200
C      3.938600    1.213900    0.386700
C      3.695100   -0.099700   -0.044300
N      2.371200   -0.537900   -0.328600
C      1.227800    0.343000   -0.249400
C      0.118400   -0.404300   -0.970000
C     -1.252500   -0.019500   -0.453500
O     -1.416500    0.892100    0.351300
N     -2.269100   -0.779300   -1.029400
N     -3.610000   -0.532900   -0.864300
C     -4.030400   -0.156900    0.305600
C     -5.426300    0.155900    0.536600
S     -5.887200    0.583300    2.132500
C     -7.516900    0.792800    1.681100
C     -7.713300    0.545100    0.342700
C     -6.505100    0.173400   -0.338700
C     -6.450900   -0.143700   -1.798300
C      0.463500   -1.862400   -0.718900
C      1.965200   -1.854900   -0.574400
O      2.630000   -2.877100   -0.642500
C      4.801100   -0.945200   -0.188800
C      6.100500   -0.500600    0.090600
