23

C      7.340600   -0.170700   -0.689400
C      5.852700   -0.313300   -0.596400
C      5.193600   -1.412500   -1.151000
C      3.799600   -1.510200   -1.072900
C      3.039900   -0.509700   -0.449600
N      1.641700   -0.694200   -0.416400
C      0.687800    0.156100    0.125800
O      0.910100    1.232400    0.668000
C     -0.726200   -0.405000   -0.012400
C     -0.917300   -1.662000    0.860500
C     -1.960100   -1.458400    1.955500
C     -3.291600   -0.955700    1.391500
N     -3.084800    0.063800    0.366000
C     -4.191100    0.856600    0.089000
N     -5.414600    0.384500    0.393100
C     -6.478900    1.154500    0.097400
C     -6.382100    2.384800   -0.496400
C     -5.104200    2.788200   -0.778500
N     -4.012800    2.050200   -0.501900
C     -1.766800    0.687100    0.280800
C      3.697700    0.592400    0.093100
C      5.086900    0.682700    0.012300
F      5.695500    1.757400    0.535500
