20

C     -6.484500   -0.638200    0.254000
C     -4.987000   -0.663800    0.185300
C     -4.310300   -1.827500   -0.183000
C     -2.913900   -1.834700   -0.275300
C     -2.155000   -0.682200   -0.012500
N     -0.757800   -0.760900   -0.128400
C      0.187800    0.200800    0.068800
N      0.068600    1.440600    0.397800
C      1.269200    2.102400    0.505600
O      1.391800    3.280700    0.807100
C      2.426900    1.207900    0.205000
C      3.685800    1.659100    0.288200
C      4.857300    0.888000    0.035200
C      5.146500   -0.040700   -0.951200
C      6.463100   -0.578500   -0.847600
C      7.157400   -0.035200    0.206800
S      6.230900    1.120200    1.055100
S      1.838100   -0.359100   -0.172000
C     -2.847100    0.480300    0.338100
C     -4.244800    0.493100    0.432200
