19

C     -5.267300    1.469800   -1.422000
C     -4.265600    0.641700   -0.672800
C     -4.352300   -0.754900   -0.679800
C     -3.400500   -1.527400   -0.008500
C     -2.339800   -0.913900    0.662400
S     -1.110400   -1.875100    1.524500
C     -0.369400   -2.792200    0.117800
C      0.420500   -1.891900   -0.832700
N      1.475000   -1.155100   -0.158000
C      2.466200   -0.528400   -0.885000
O      2.594100   -0.655500   -2.097500
C      3.378000    0.368500   -0.120200
C      3.624500    0.187600    1.247400
C      4.486900    1.055000    1.922700
C      5.109700    2.097500    1.236400
C      4.879700    2.272400   -0.127700
C      4.019300    1.407700   -0.806400
C     -2.251000    0.480100    0.672200
C     -3.201900    1.252900    0.000200
