28

Si    -5.201100    1.250600   -2.665000
C     -5.899000   -0.460000   -2.359300
C     -5.056600   -1.188600   -1.603900
C     -5.282900   -2.555500   -1.180800
C     -4.348200   -3.163500   -0.426900
C     -3.116800   -2.487600   -0.020700
C     -2.830000   -1.211500   -0.372700
C     -1.566000   -0.631200    0.104400
C     -1.548600    0.265600    1.173600
N     -0.434400    0.857500    1.673200
C      0.743500    0.547500    1.078300
C      1.903800    1.184600    1.624000
S      2.050600    2.308700    2.953600
C      3.778100    2.404200    2.737900
C      4.897500    3.063200    3.323100
C      5.992500    2.644300    2.599000
N      5.590900    1.774700    1.619400
C      4.229000    1.625800    1.706700
C      3.164200    0.953900    1.102700
C      3.331600    0.066200    0.004200
C      4.425800   -0.344800   -0.697000
N      3.934000   -1.219100   -1.648000
C      2.559700   -1.336900   -1.528100
C      2.155700   -0.530400   -0.486800
C      0.832000   -0.353100   -0.020400
C     -0.351300   -0.944800   -0.507000
C     -3.809400   -0.496300   -1.197100
C     -3.702600    0.769000   -1.651700
