17

C      4.827500   -0.202400   -1.077600
C      3.440800   -0.572800   -0.639300
C      3.202500   -1.803000   -0.017900
C      1.926400   -2.159900    0.431900
C      0.890600   -1.238000    0.246200
N     -0.439800   -1.317900    0.594700
C     -1.091700   -0.175300    0.216900
C     -0.166900    0.671800   -0.363800
C      1.090000    0.004600   -0.357800
C      2.386100    0.342300   -0.797700
C     -0.517000    2.040400   -0.845000
C     -2.042500    2.226400   -0.948600
C     -2.786800    1.632200    0.262800
C     -2.559000    0.107300    0.381900
C     -3.091800   -0.441700    1.705400
N     -3.275600   -1.802600    1.735700
O     -3.346400    0.229200    2.699100
