21

C     -4.197900   -2.293500   -1.919900
C     -4.075300   -1.113200   -1.000900
C     -5.178700   -0.680200   -0.259200
C     -5.084000    0.396100    0.629400
C     -3.839900    1.022000    0.761000
N     -3.461500    2.082700    1.549700
C     -2.134300    2.360900    1.364600
C     -1.628100    1.467600    0.440500
C     -0.218600    1.407300   -0.051800
C      0.627600    0.394000    0.718300
N      1.982900    0.314600    0.193700
C      2.996500   -0.226800    0.961300
O      2.854200   -0.568800    2.128900
C      4.303500   -0.418600    0.289300
C      4.714300    0.325500   -0.819700
C      5.964800    0.076600   -1.384300
C      6.762900   -0.904700   -0.816500
N      6.401400   -1.633300    0.261000
C      5.182800   -1.367500    0.796800
C     -2.711300    0.614600    0.051200
C     -2.834000   -0.474700   -0.837700
