21

C     -4.136000   -2.909200   -0.385100
C     -2.665100   -2.618900   -0.385800
C     -1.736200   -3.642700   -0.554300
C     -0.369100   -3.350100   -0.597000
C      0.112600   -2.052500   -0.481300
N      1.433900   -1.853600   -0.545200
C      1.886400   -0.600400   -0.463200
N      3.263900   -0.459200   -0.562900
C      3.814500    0.631200    0.224100
C      5.343400    0.647000    0.118300
O      5.912400    1.650600    0.954700
N      1.106900    0.465500   -0.285700
C     -0.225800    0.258000   -0.200600
C     -0.998000    1.491900    0.022100
C     -1.735100    1.691900    1.202200
C     -2.463200    2.867400    1.403500
C     -2.457900    3.865400    0.431600
C     -1.720400    3.693200   -0.737400
C     -0.992900    2.517600   -0.937700
C     -0.805700   -1.013900   -0.311100
C     -2.196900   -1.305900   -0.280100
