21

C     -5.631800   -1.442100    0.096000
C     -4.608300   -0.310200    0.038100
C     -4.512600    0.413400    1.399400
C     -3.565200    1.622900    1.339400
C     -2.309100    1.270300    0.606100
S     -0.928900    2.257900    0.658400
C     -0.052700    1.213800   -0.389100
C      1.321900    1.558500   -0.737100
O      1.836400    2.653600   -0.517400
N      2.042100    0.540500   -1.335900
C      3.453800    0.672100   -1.611100
C      4.272300    0.008900   -0.531800
C      4.765000   -1.294500   -0.703900
C      5.502300   -1.908100    0.310300
C      5.741200   -1.223900    1.496500
F      6.447300   -1.816900    2.468100
C      5.255900    0.063200    1.690000
C      4.519600    0.679400    0.677600
C     -0.834700    0.136900   -0.777200
C     -2.143000    0.165500   -0.202400
C     -3.227700   -0.851900   -0.397200
