21

C     -2.848300   -1.681000    2.277200
C     -3.355800   -0.947800    1.062200
C     -4.717600   -1.078800    0.742500
C     -5.246800   -0.451600   -0.377700
C     -4.427600    0.341700   -1.172400
C     -3.064400    0.520600   -0.867400
C     -2.313200    1.499000   -1.731100
C     -2.507600   -0.173900    0.228900
N     -1.138100   -0.094000    0.590200
C     -0.058600   -0.104800   -0.286900
O     -0.117200   -0.250400   -1.502500
C      1.272300    0.042500    0.455700
O      2.371800    0.174900   -0.440200
C      3.587600    0.246200    0.176400
O      3.725800    0.204900    1.397300
C      4.700200    0.386400   -0.746000
N      4.544400    0.528700   -2.070100
O      5.832700    0.643700   -2.575400
N      6.779000    0.579600   -1.562100
C      6.081900    0.413600   -0.441200
N      6.631700    0.293300    0.783700
