23

C     -4.879400   -2.268200    0.315200
C     -3.584300   -1.585000    0.647500
C     -2.519000   -2.315000    1.189900
C     -1.332600   -1.674800    1.556000
C     -1.196300   -0.299100    1.381600
C     -2.246000    0.426000    0.827500
O     -2.137500    1.781100    0.672000
C     -1.518000    2.097600   -0.572300
C      0.009800    2.245200   -0.527400
O      0.648100    2.362100    0.517200
N      0.569700    2.229400   -1.815600
N      1.888300    2.557400   -2.014500
C      2.812500    1.827500   -1.453500
C      2.659300    0.520300   -0.783000
C      2.048300   -0.505200   -1.524400
C      1.879600   -1.773900   -0.970000
C      2.322400   -2.027700    0.324800
C      2.934100   -1.012900    1.064700
C      3.120200    0.269000    0.516800
C      3.754600    1.270300    1.406400
O      3.828000    1.182400    2.620100
O      4.352800    2.280500    0.756200
C     -3.445200   -0.200900    0.485800
