13

C      1.643300   -1.953200   -0.389700
C      0.254300   -1.417900   -0.188600
C     -0.767900   -2.304700   -0.187800
C     -2.152700   -1.927800   -0.005300
C     -2.508000   -0.649200    0.177400
C     -1.488200    0.394200    0.194900
C     -1.876500    1.665800    0.380100
C     -0.877800    2.741900    0.403400
O     -1.202900    3.911300    0.570500
N      0.417500    2.353300    0.228600
C      0.855400    1.053600    0.035200
C      2.349400    0.958200   -0.125900
C     -0.045300    0.032700    0.008300
