20

C      0.530300   -1.450800    2.951900
C     -0.316300   -0.211300    3.068900
C     -0.591200    0.320700    4.340100
C     -1.370300    1.464600    4.471200
C     -1.878400    2.083100    3.334100
C     -1.606800    1.557500    2.060200
C     -2.109100    2.163600    0.905300
C     -1.824800    1.621700   -0.350600
C     -2.372400    2.247600   -1.515100
N     -2.820700    2.807400   -2.428900
C     -1.033900    0.472800   -0.427200
N     -0.703500   -0.098600   -1.675500
C      0.421800    0.644600   -2.303300
C      1.215400   -0.245600   -3.287200
N      1.804800   -1.463000   -2.687300
C      3.204200   -1.267000   -2.319000
C      1.019900   -1.917200   -1.513200
C     -0.479900   -1.565700   -1.613700
N     -0.550600   -0.115600    0.695100
C     -0.819500    0.398800    1.912900
