24

C     -3.424000    1.025600    3.226600
C     -3.352100    1.469400    1.792900
C     -4.072900    2.613100    1.391800
C     -4.057100    3.053300    0.071500
C     -3.335700    2.360300   -0.902800
C     -2.641700    1.203300   -0.515400
S     -1.715300    0.121900   -1.485600
C     -1.405700   -0.837700   -0.121400
N     -0.671600   -1.991400   -0.169200
C     -0.266100   -2.671000   -1.296100
O     -0.530500   -2.380200   -2.462400
C      0.555300   -3.913400   -0.962800
S      2.156100   -3.893400   -1.807200
C      2.802900   -2.400300   -1.194100
N      2.416500   -1.856800   -0.052300
C      3.130400   -0.684600    0.004600
C      3.147600    0.343400    0.957600
C      3.984600    1.447300    0.721500
C      4.776900    1.525300   -0.434400
C      4.773100    0.504200   -1.391400
C      3.933600   -0.569400   -1.119000
O      3.738100   -1.676700   -1.886500
N     -1.887200   -0.406200    1.017400
C     -2.628300    0.750900    0.806200
