22

C     -4.191600    1.820700    0.083300
C     -3.998800    0.443500   -0.492000
C     -4.741600    0.077600   -1.627100
C     -4.598600   -1.184300   -2.203100
C     -3.709500   -2.100500   -1.654500
C     -2.966300   -1.755900   -0.526800
C     -3.102100   -0.488900    0.073500
C     -2.259500   -0.176500    1.290400
N     -0.921900    0.252000    0.924100
N     -0.587400    1.552000    0.853500
N      0.707600    1.551500    0.575100
C      1.106800    0.235100    0.519000
C      2.479900   -0.164200    0.236200
C      2.836800   -1.521200    0.189100
C      4.151800   -1.905600   -0.082000
C      5.126600   -0.935600   -0.309800
C      4.789500    0.422500   -0.267500
C      5.861100    1.416900   -0.516700
O      7.026200    1.162600   -0.759700
O      5.422100    2.685400   -0.449000
C      3.468300    0.805100    0.005000
N      0.097700   -0.619500    0.766900
