24

C     -2.074000   -0.914300    1.795600
C     -3.108500   -0.584700    0.709200
C     -4.369600    0.051100    1.332600
C     -4.506200    1.555400    1.083100
C     -3.162300    2.267700    1.126700
C     -2.174000    1.716000    0.096800
C     -2.535800    0.311900   -0.409600
N     -1.394100   -0.294000   -1.075800
C     -1.527200   -1.290600   -2.023100
O     -2.611900   -1.651300   -2.474200
C     -0.209300   -1.913600   -2.479000
O      0.887900   -1.320100   -1.791500
N      2.074700   -1.948700   -2.184300
C      3.115100   -1.459500   -1.573400
C      3.178700   -0.306700   -0.645700
C      2.483400    0.872400   -0.947300
C      2.556600    1.965100   -0.087100
C      3.330800    1.884100    1.067200
C      4.047500    0.718200    1.358800
C      3.994100   -0.383700    0.496800
O      4.659000   -1.563400    0.699200
C      5.674000   -1.578000    1.688900
F      5.100100   -1.540000    2.915700
F      6.312300   -2.770900    1.593800
