27

Si    -5.214600   -0.692900    1.573400
C     -6.675200    0.405300    1.107000
C     -6.361000    1.235600    0.095500
C     -5.000200    1.116300   -0.405100
C     -4.248900    0.176600    0.203300
C     -2.857200   -0.126500   -0.067200
C     -1.800700    0.641800    0.471900
C     -0.455400    0.309100    0.188300
N      0.729000    0.906300    0.606700
C      1.797000    0.233600    0.076500
C      1.299900   -0.806700   -0.695400
Si     2.721800   -1.758700   -1.450300
C      3.986100   -0.555200   -0.574700
C      5.406300   -0.600700   -0.645600
C      6.217500    0.333500    0.038500
C      5.482900    1.279200    0.771100
C      6.086400    2.270600    1.504100
S      4.922200    3.264900    2.284800
C      3.603100    2.364500    1.639000
C      4.034600    1.330000    0.846700
C      3.229100    0.413600    0.175600
C     -0.071100   -0.755200   -0.623200
C     -1.104800   -1.550500   -1.205600
C     -0.934100   -2.620900   -2.033000
S     -2.479400   -3.233500   -2.483800
C     -3.308900   -2.037500   -1.554500
C     -2.444000   -1.187100   -0.895100
