22

C      4.622300   -0.988900   -0.898500
C      4.743200   -0.162500    0.341200
C      5.997300    0.127900    0.977600
C      5.856800    0.903500    2.104600
S      4.225300    1.290400    2.409400
C      3.688700    0.421100    1.032200
C      2.264400    0.401500    0.765500
N      1.786700   -0.207100   -0.274200
C      0.426500   -0.168900   -0.416900
C     -0.272000   -0.005200   -1.553300
C      0.321400    0.213200   -2.907300
N     -1.662700   -0.083000   -1.378200
C     -2.405800   -1.031500   -2.227200
N     -1.859200   -0.292900    0.019600
C     -3.077300    0.058900    0.658900
C     -3.307100   -0.274200    2.000800
C     -4.506900    0.067900    2.634000
C     -5.495400    0.754300    1.935400
C     -5.283700    1.101500    0.604900
C     -4.084100    0.757000   -0.026400
C     -0.610300   -0.395000    0.652200
O     -0.338400   -0.558700    1.833100
