31

C      7.145300    0.489100    2.991000
C      7.818500    0.662000    1.664700
C      9.238200    0.837300    1.534400
C      9.641000    0.974200    0.228200
S      8.329200    0.888400   -0.851100
C      7.183300    0.671500    0.421100
C      5.760200    0.539400    0.085400
N      5.396900    0.325200   -1.195000
N      4.067900    0.206300   -1.491200
C      3.168700    0.306200   -0.493500
C      1.744900    0.176000   -0.830100
S      0.564700    0.484200    0.384400
C     -0.752000    0.181200   -0.659100
C     -2.133500    0.261400   -0.234100
C     -3.207600   -0.443800   -0.777800
C     -4.421700   -0.113300   -0.133100
C     -4.228400    0.825800    0.859700
S     -2.654200    1.318600    1.047900
C     -5.471600    1.123200    1.468400
S     -6.002100    2.123000    2.687400
C     -7.627700    1.571100    2.448700
C     -7.732500    0.628200    1.436100
C     -6.464600    0.372100    0.866200
C     -5.898200   -0.523100   -0.246700
C     -6.096600   -2.007300    0.067800
C     -6.480400   -0.160600   -1.614200
C     -0.298500   -0.165100   -1.916200
C      1.134000   -0.169000   -2.034000
C      1.837100   -0.508900   -3.311600
N      3.532800    0.514900    0.787800
N      4.861600    0.634000    1.083900
