20

C     -3.580200    2.867400   -0.527200
C     -3.487800    1.400800   -0.337700
C     -4.533700    0.504000   -0.266800
O     -4.079200   -0.760500   -0.087400
C     -2.718700   -0.698600   -0.039500
C     -1.863500   -1.788000    0.138100
C     -2.339200   -3.196600    0.305500
C     -0.492200   -1.454600    0.152900
O      0.400200   -2.535100    0.346400
C      1.770500   -2.366600    0.420400
O      2.521400   -3.318200    0.605800
C      2.283200   -0.984800    0.252500
C      1.463800    0.061100    0.028000
C      0.004700   -0.155100   -0.001800
C     -0.917800    0.893400   -0.168900
C     -2.301000    0.617900   -0.190700
C      2.006800    1.456000   -0.196300
C      3.517800    1.509800   -0.434800
C      4.253900    0.591700    0.527300
C      3.782400   -0.851700    0.358600
