20

C     -4.786500   -2.387800   -1.099200
C     -3.769600   -1.444800   -0.522500
N     -2.483700   -1.836200   -0.647700
C     -1.542200   -1.021100   -0.157700
S      0.138300   -1.554800   -0.342400
C      0.934800   -0.456100    0.868400
C      2.418500   -0.755800    0.993600
O      2.974400   -0.827800    2.088300
N      3.101200   -0.857600   -0.196200
C      4.536000   -0.996500   -0.259100
C      5.122800    0.342100   -0.506600
C      5.554600    1.353500    0.327000
C      6.008200    2.397400   -0.513800
C      5.821600    1.959300   -1.803900
O      5.281600    0.713300   -1.810800
N     -1.786600    0.158900    0.426800
C     -3.078600    0.535800    0.543500
C     -3.300200    1.871100    1.194600
C     -4.135300   -0.254100    0.099400
C     -5.565200    0.182200    0.207100
