21

C     -2.052300    2.302600   -2.059800
C     -0.737800    1.917200   -1.477200
N      0.337400    2.678500   -1.552200
C      1.299600    2.038300   -0.816700
C      2.654300    2.513600   -0.555800
O      3.104600    3.582400   -0.956900
O      3.441600    1.651000    0.241200
C      3.009400    0.349800    0.626200
C      3.959600   -0.445600    1.265000
C      3.631200   -1.758000    1.589800
C      2.373800   -2.262900    1.254400
C      1.426600   -1.452600    0.614300
C      1.717200   -0.118500    0.327600
C      0.833100    0.829400   -0.337000
N     -0.512000    0.794600   -0.676800
C     -1.504600   -0.105200   -0.210200
C     -2.421400   -0.673300   -1.101400
C     -3.405600   -1.540000   -0.622700
C     -3.480900   -1.832400    0.739100
C     -2.572000   -1.260800    1.628700
C     -1.582900   -0.395900    1.158700
