19

C      5.183800   -1.536100   -0.756800
C      4.660400   -0.244700   -0.262100
N      5.509300    0.786300    0.078700
C      4.699000    1.743700    0.463400
O      3.373900    1.439200    0.408500
C      3.349200    0.145400   -0.063600
C      2.087300   -0.535700   -0.258800
O      2.027600   -1.686800   -0.677000
N      0.999900    0.253200    0.076000
C     -0.368900   -0.071600    0.016200
C     -0.862800   -1.305100   -0.417000
C     -2.240700   -1.550900   -0.439600
C     -3.132300   -0.566300   -0.026900
C     -2.649500    0.678200    0.381200
C     -1.275400    0.919200    0.416800
O     -3.465700    1.710600    0.769800
C     -4.823200    1.478000    0.374600
C     -5.240900    0.053100    0.699100
O     -4.464900   -0.885000   -0.054900
