19

C      2.396500   -2.649800   -0.243800
C      2.706000   -1.201800   -0.147700
N      3.980500   -0.788600   -0.143200
N      3.884200    0.548700   -0.041100
C      5.085100    1.346800   -0.007600
C      2.600400    0.999500    0.021200
C      1.795900   -0.111400   -0.046800
N      0.411800   -0.184600   -0.023500
C     -0.451000    0.892100    0.087500
O     -0.072000    2.059800    0.166600
C     -1.905000    0.573100    0.092000
N     -2.779700    1.539300   -0.275300
N     -3.996600    1.007800   -0.115100
C     -5.162100    1.808400   -0.408200
C     -3.971600   -0.273500    0.328500
C     -2.634000   -0.594600    0.469100
N     -2.172700   -1.863500    0.933900
O     -2.907100   -2.481700    1.712500
O     -1.087200   -2.259200    0.492900
