23

Si    -4.402000    0.687900   -1.408000
C     -5.910900    0.482100   -0.294900
C     -5.569000   -0.018300    0.906700
C     -4.149800   -0.281900    1.087800
C     -3.377100   -0.004300    0.018400
C     -1.934800   -0.135400   -0.064100
C     -1.061500    0.859300    0.455500
C      0.338400    0.698600    0.351200
N      1.402600    1.501300    0.758900
C      2.509000    0.825000    0.389900
C      3.819600    1.035700    0.485200
N      4.598100    2.001300    0.982300
C      5.884700    1.549900    0.731200
C      5.862200    0.311400    0.083000
C      4.488300    0.003800   -0.062400
N      3.526300   -0.865100   -0.505900
C      2.286500   -0.359400   -0.227300
C      0.899900   -0.427500   -0.246200
C      0.100700   -1.466100   -0.770600
C      0.516400   -2.618900   -1.364900
S     -0.872700   -3.539500   -1.802700
C     -1.960300   -2.350500   -1.171500
C     -1.300500   -1.258600   -0.644900
