25

C      4.791100   -2.018700   -1.411700
C      3.684700   -2.077500   -0.433900
N      2.828900   -3.066800   -0.260800
N      1.964400   -2.710900    0.751900
C      2.297700   -1.506500    1.157200
S      1.511000   -0.640700    2.428900
C      0.947900    0.899700    1.664300
C      0.404500    0.713900    0.252400
O      1.176800    0.679200   -0.709000
N     -0.987000    0.592400    0.174700
C     -1.814900    1.726200    0.511500
C     -1.223200    3.006900    0.622800
C     -1.968200    4.142900    0.952900
C     -3.331600    4.032300    1.171200
C     -3.943700    2.789300    1.042400
C     -3.200500    1.642600    0.703700
S     -4.111300    0.135100    0.574600
C     -2.959100   -0.866700   -0.324500
C     -3.490500   -2.038800   -0.897900
C     -2.671100   -2.956100   -1.545800
C     -1.310300   -2.712700   -1.615000
C     -0.778400   -1.547600   -1.051600
C     -1.584500   -0.585900   -0.407000
N      3.391300   -1.069500    0.451100
N      4.084200    0.180700    0.559700
