15

C     -2.254700    2.630000   -1.369400
C     -2.419700    1.281400   -0.778600
N     -3.534000    0.574800   -1.003900
O     -3.388100   -0.594200   -0.283500
C     -2.190300   -0.588100    0.360500
C     -1.932400   -1.746700    1.235700
C     -1.506400    0.565900    0.040100
C     -0.208500    1.000400    0.507400
O     -0.069000    2.118200    0.998300
N      0.864400    0.125200    0.365600
C      0.904900   -1.014100   -0.561100
C      2.288000   -1.142800   -1.210200
O      3.347300   -1.312200   -0.258900
C      3.116200   -0.662200    0.999800
C      2.160800    0.529400    0.910400
