23

C     -5.949900    0.895100   -0.864200
C     -4.702700    0.370200   -0.266700
O     -4.125400    1.152400    0.685300
C     -2.995100    0.522000    1.103600
N     -2.183500    1.037100    2.033000
C     -1.141500    0.237500    2.272500
S      0.070700    0.809800    3.441400
C      0.520700    2.361100    2.604800
C      1.063100    2.168200    1.194400
O      0.960000    3.052200    0.345400
N      1.734000    0.989400    0.957400
C      2.320300    0.660700   -0.335500
C      3.654600    1.408600   -0.515000
C      4.627800    0.638600   -1.397900
C      4.975600   -0.724500   -0.797000
C      3.826200   -1.355100   -0.007100
C      2.466700   -0.863300   -0.491300
N     -0.881000   -0.958300    1.707000
C     -1.724800   -1.437000    0.774300
N     -1.414300   -2.672000    0.222500
C     -2.848000   -0.680200    0.428900
C     -3.954100   -0.776500   -0.475800
C     -4.233800   -1.866500   -1.441700
