23

C     -0.239200   -3.948400    0.244700
C     -1.022700   -2.698800    0.299800
O     -2.353700   -2.835600    0.063000
N     -2.977600   -1.613600    0.184300
C     -2.014900   -0.736900    0.505000
C     -2.328500    0.670900    0.708500
C     -2.053700    1.619900   -0.291700
Cl    -1.335200    1.187100   -1.808700
C     -2.355100    2.972800   -0.093800
C     -2.929400    3.396000    1.102700
C     -3.199500    2.467300    2.105600
C     -2.900100    1.112900    1.913700
Cl    -3.243600    0.037200    3.227600
C     -0.738800   -1.373800    0.564600
C      0.534200   -0.753400    0.866900
O      0.612800    0.276100    1.529200
N      1.635800   -1.370400    0.316300
C      2.924200   -0.715100    0.327700
C      3.030800    0.112800   -0.897900
C      2.756700    1.436600   -1.172500
C      3.032700    1.623500   -2.547600
C      3.454100    0.404200   -3.023800
O      3.453100   -0.521800   -2.030300
