24

C     -0.631000    0.741700   -2.536100
C      0.702700    0.402600   -1.997300
O      1.638400    0.078200   -2.922800
N      2.822700   -0.224700   -2.298400
C      2.612900   -0.065900   -0.981100
C      3.708800   -0.301000   -0.044200
C      4.047000    0.648500    0.928300
C      5.107100    0.413200    1.807900
C      5.843400   -0.766700    1.716400
C      5.524900   -1.712100    0.743500
C      4.464700   -1.479200   -0.135400
C      1.256200    0.317900   -0.732300
C      0.584600    0.543900    0.530200
O      1.113200    0.407900    1.625400
O     -0.719900    0.911400    0.376800
C     -1.412000    1.150600    1.601800
C     -2.871600    1.449500    1.308000
O     -3.393600    2.501600    1.676800
C     -3.691600    0.443100    0.567500
C     -4.938000    0.843200    0.065400
C     -5.739200   -0.058000   -0.638000
C     -5.303100   -1.365600   -0.840800
C     -4.069000   -1.774700   -0.337900
C     -3.263900   -0.875600    0.367300
