14

C      3.132800   -0.770700   -0.703400
C      2.701100   -0.145300    0.611500
S      1.651900    1.311600    0.314400
C      0.207400    0.615800    1.142400
C     -0.990800    0.525300    0.224400
C     -1.158700   -0.535400   -0.684600
C     -2.268400   -0.585100   -1.532100
C     -3.224700    0.427600   -1.490500
C     -3.065200    1.489100   -0.604200
Cl    -4.240900    2.744700   -0.555000
C     -1.959200    1.544500    0.245300
N      0.597800   -0.657400    1.663900
C      1.863200   -1.115500    1.422000
O      2.247900   -2.206900    1.821500
