20

C     -6.240200   -0.457600    1.329700
C     -4.819500   -0.990900    1.318800
C     -4.268200   -1.062900   -0.090200
O     -4.903900   -1.499300   -1.044300
C     -2.858500   -0.666400   -0.292100
C     -1.963400   -1.674400   -0.647700
C     -0.615500   -1.371200   -0.828200
F      0.196200   -2.392300   -1.144700
C     -0.111000   -0.068200   -0.656700
N      1.235100    0.306600   -0.827500
C      2.130700   -0.631900   -1.537400
C      3.492900    0.039100   -1.840400
N      4.191700    0.606800   -0.659900
C      4.719900   -0.458100    0.204500
C      5.684100    0.071200    1.261200
C      3.244800    1.510500    0.033900
C      1.862100    0.900900    0.376900
C     -1.053200    0.931200   -0.334900
C     -2.424800    0.659500   -0.164300
C     -3.362300    1.792100    0.144100
