20

C      1.676100    3.599300    2.213600
C      1.042200    2.315400    2.712900
C      0.204200    1.664900    1.629600
O     -0.965400    2.019300    1.462200
C      0.786900    0.584600    0.758200
C      2.175300    0.373600    0.743100
C      2.725600   -0.638900   -0.038600
C      1.903800   -1.429900   -0.838500
C      0.522500   -1.235200   -0.832500
C     -0.055700   -0.227600   -0.048500
N     -1.453400    0.007700   -0.042800
C     -2.453900   -0.654800   -0.729500
O     -2.299800   -1.611100   -1.481500
C     -3.839500   -0.063900   -0.446900
C     -4.255800   -0.338000    0.997400
C     -4.884000   -0.622200   -1.412000
O      2.384300   -2.422000   -1.654400
C      3.796300   -2.299500   -1.856100
C      4.502300   -2.042300   -0.535500
O      4.087000   -0.790300    0.025600
