23

C     -3.851500    3.358900   -0.421600
C     -4.360800    2.162600   -1.201900
C     -4.142200    0.882500   -0.420700
O     -4.990800    0.484300    0.375600
C     -2.874800    0.106400   -0.580000
C     -1.791400    0.575900   -1.332500
C     -0.621600   -0.185100   -1.425400
C     -0.529800   -1.403200   -0.749900
O      0.644300   -2.095500   -0.899800
C      1.373900   -2.168800    0.333700
C      2.729000   -1.624500    0.047200
C      3.805600   -2.088100   -0.682900
C      4.802000   -1.080800   -0.613100
C      4.282500   -0.059600    0.166700
C      4.853000    1.205000    0.570300
O      5.954500    1.623100    0.238300
O      3.989100    1.872200    1.386500
C      4.468400    3.134900    1.866400
O      3.017500   -0.400000    0.574400
C     -1.609500   -1.903500   -0.009100
O     -1.424200   -3.122900    0.585600
C     -2.524400   -3.669000    1.296400
C     -2.776400   -1.135600    0.073200
