23

C      5.768900    2.267900    1.622800
C      4.554300    1.941600    0.764600
C      4.369000    0.445200    0.544200
O      5.206000   -0.366800    0.942600
C      3.166800    0.008100   -0.167400
C      2.180100    0.838000   -0.674300
N      1.207500    0.059700   -1.253800
C     -0.011500    0.596100   -1.833900
C     -1.001800    0.956600   -0.745600
O     -1.066300    2.089800   -0.273500
N     -1.808600   -0.089800   -0.328000
C     -2.633900    0.047000    0.860900
C     -3.807800    1.034700    0.748500
C     -4.788700    0.710800   -0.380000
C     -5.848700   -0.102400    0.318500
C     -5.906700    0.570400    1.671600
O     -4.563100    0.957900    1.979600
C      1.550100   -1.274900   -1.173100
C      0.899000   -2.434900   -1.640400
C      1.491600   -3.676100   -1.385000
C      2.693000   -3.763800   -0.686700
C      3.338500   -2.606200   -0.236700
C      2.767900   -1.335400   -0.480200
