21

C     -4.400000   -2.914900    0.178100
C     -3.131100   -2.353800   -0.439100
C     -2.746000   -1.002200    0.142200
O     -3.403000   -0.454500    1.018500
N     -1.590100   -0.516000   -0.441400
C     -0.920600    0.706100   -0.189000
C     -1.386200    1.658600    0.725000
C     -0.681200    2.854900    0.929400
C     -1.141700    3.889700    1.888100
O     -0.580600    4.946400    2.113100
O     -2.278800    3.553800    2.518000
C      0.495500    3.102800    0.215100
C      0.970000    2.162000   -0.697700
C      0.274500    0.962300   -0.900100
S      0.925800   -0.221400   -2.087500
C      2.444200   -0.717700   -1.289900
C      3.646400   -0.630100   -1.999700
C      4.847700   -1.020600   -1.404000
C      4.852900   -1.506900   -0.097900
C      3.657800   -1.606900    0.612300
C      2.455700   -1.217400    0.017300
