19

C     -3.893300   -0.121600    1.712500
C     -3.137000    0.935500    0.923200
C     -3.014600    0.711700   -0.600600
C     -4.377900    0.765400   -1.298100
C     -2.174600   -0.514700   -1.032600
N     -0.821000   -0.454400   -0.465700
C      0.160000    0.289800   -1.059800
O     -0.015800    1.021400   -2.023000
N      1.363100    0.110500   -0.433900
C      2.499500    0.902000   -0.843500
C      3.734400    0.488900   -0.089200
C      4.429700   -0.673500   -0.452400
C      5.562300   -1.072800    0.258500
C      6.007100   -0.318200    1.342500
C      5.319000    0.834200    1.718200
C      4.185700    1.235200    1.008400
C     -2.803600   -1.880600   -0.717900
O     -3.918800   -2.269900   -1.023200
O     -1.968500   -2.715300   -0.049200
