16

C      4.188100    0.743300    0.046600
C      2.697900    0.743200   -0.260000
C      1.999000   -0.583400    0.081600
C      2.525300   -1.755300   -0.743900
N      0.561700   -0.454700   -0.129200
C     -0.265700    0.091700    0.824000
O      0.075300    0.431700    1.948200
C     -1.669500    0.243600    0.351100
C     -2.615900   -0.853900    0.445300
C     -2.176000   -2.143000    1.078200
C     -3.865800   -0.683800   -0.011600
C     -4.305800    0.587600   -0.611100
O     -5.447400    0.710700   -1.038600
O     -3.383600    1.593100   -0.665800
C     -2.057800    1.417500   -0.179000
C     -1.221300    2.651700   -0.335200
