22

C     -3.762700   -0.537900    2.025700
C     -3.360100    0.891700    1.692700
C     -2.896300    1.155600    0.248300
C     -3.843200    0.660600   -0.858700
C     -5.200100    1.350500   -0.832700
C     -1.449400    0.692000    0.031200
O     -0.530300    1.504700    0.104200
N     -1.302800   -0.664600   -0.186600
C     -0.104700   -1.372100   -0.422700
C     -0.195100   -2.768200   -0.502200
C      0.940800   -3.544800   -0.736800
C      2.181500   -2.930700   -0.889000
C      2.290800   -1.537400   -0.805000
C      3.641200   -0.923200   -0.980400
O      4.452400   -1.523100   -1.676000
N      3.840500    0.252100   -0.294000
C      4.975000    1.022800   -0.287200
N      5.056500    2.092000    0.472000
C      6.285900    2.695000    0.290300
C      7.122700    2.073400   -0.610000
S      6.341200    0.690000   -1.250100
C      1.141500   -0.761400   -0.590000
