17

C     -4.177600   -0.121800   -0.881900
C     -3.165800   -1.257500   -0.773500
C     -1.719200   -0.809400   -0.538600
N     -1.271400    0.036400   -1.667800
S      0.272700   -0.186500   -2.285200
O      0.393700   -1.578100   -2.660400
O      0.497300    0.881200   -3.233300
C      1.324100    0.101200   -0.884500
C      1.580900    1.413300   -0.480800
C      2.408700    1.644200    0.618900
C      2.982400    0.571300    1.314900
C      3.903100    0.826500    2.472500
C      2.741900   -0.738500    0.877700
C      1.914200   -0.977100   -0.220600
C     -1.583800   -0.033300    0.763200
O     -1.474000    1.180200    0.864600
O     -1.600400   -0.816000    1.858500
