22

C      0.472500   -4.513100   -1.911300
C      0.010000   -3.116200   -2.309800
C      0.193100   -2.056700   -1.203600
S      1.976200   -1.757200   -0.886200
C      1.907700   -0.694000    0.531800
N      2.981600    0.085500    0.724000
C      2.962000    0.908800    1.788600
C      4.157800    1.788200    1.997700
C      1.893400    0.959300    2.658800
C      0.835400    0.111900    2.392200
C     -0.366000    0.122000    3.295200
N      0.822700   -0.724300    1.330200
C     -0.472100   -0.743900   -1.650300
O     -0.416900   -0.351300   -2.815200
N     -1.128000   -0.096100   -0.624300
C     -1.890800    1.069100   -0.668800
C     -2.155000    1.782500   -1.834100
C     -2.951700    2.928200   -1.758800
C     -3.481700    3.309900   -0.533900
Cl    -4.491100    4.689700   -0.402900
C     -3.183000    2.535500    0.574200
N     -2.390400    1.435300    0.536900
