22

C     -4.574900   -0.720300   -2.194700
C     -4.724100    0.034400   -0.882600
C     -3.540500   -0.183300    0.026200
C     -3.541500   -1.240600    0.946500
C     -2.440600   -1.463000    1.780700
C     -2.460900   -2.569400    2.792700
C     -1.340800   -0.600900    1.697100
C     -1.318100    0.450900    0.777600
O     -0.174100    1.198600    0.801300
C     -0.047200    2.235600   -0.169800
C      1.328500    2.898700   -0.030900
N      2.418500    1.986500   -0.353900
C      3.121000    1.334600    0.640800
O      2.989000    1.564500    1.836600
C      4.073400    0.288800    0.202700
C      4.387900   -0.735800    1.090100
N      5.243000   -1.750500    0.802300
C      5.819000   -1.727300   -0.422200
C      5.578600   -0.737000   -1.363600
Br     6.439200   -0.775400   -3.041300
C      4.694300    0.291600   -1.049000
C     -2.417600    0.655800   -0.056600
