19

C     -5.046100    1.859900   -0.506100
C     -5.031900    0.405400   -0.062000
C     -3.626700   -0.114400    0.108400
C     -2.973500   -0.000200    1.342300
C     -1.666900   -0.469300    1.497000
C     -0.991500   -1.045400    0.415300
C      0.401200   -1.529000    0.626700
O      0.770800   -1.871400    1.744200
N      1.222200   -1.524900   -0.481300
C      2.630100   -1.835100   -0.374500
C      3.453500   -0.573300   -0.307400
C      4.068300   -0.054700   -1.456500
C      4.811200    1.126700   -1.388500
C      4.937200    1.798100   -0.173800
Cl     5.850600    3.254200   -0.093900
C      4.325900    1.300100    0.974100
C      3.584200    0.118900    0.906500
C     -1.642300   -1.170600   -0.817800
C     -2.950500   -0.701300   -0.969700
