16

C      5.752100    0.398800   -0.224400
C      4.522700    0.226200    0.652400
C      3.239500    0.524000   -0.117900
C      2.000100    0.357000    0.741400
O      2.027000    0.014900    1.917700
N      0.836000    0.638200    0.053100
C     -0.473600    0.436100    0.658400
C     -1.567900    1.285400   -0.030700
C     -2.872500    1.141300    0.779600
C     -3.315100   -0.333800    0.814500
C     -3.553100   -0.823200   -0.624200
C     -2.259600   -0.688500   -1.445800
C     -1.829600    0.787300   -1.466300
C     -1.153000   -1.532200   -0.790900
C     -0.898800   -1.052600    0.651800
C     -2.206700   -1.187700    1.456600
