17

C     -6.053200    1.049700    0.252300
C     -4.588200    0.888900   -0.121700
C     -3.846100    0.012500    0.886400
C     -2.420200   -0.148800    0.516400
C     -1.713300   -1.100400   -0.173900
C     -0.375100   -0.632500   -0.160900
C      0.793700   -1.273600   -0.766100
O      0.714400   -2.317100   -1.408400
N      1.977600   -0.604100   -0.562700
C      3.181400   -0.984500   -1.253000
C      4.330600   -0.302900   -0.614800
C      5.360900   -0.735600    0.194400
C      6.144700    0.406100    0.488300
C      5.543200    1.460900   -0.156700
O      4.440500    1.041500   -0.828700
N     -0.286800    0.536700    0.499500
O     -1.570600    0.831800    0.921900
