16

C     -4.538500   -0.162100   -0.697200
C     -4.039800    1.270200   -0.565700
C     -3.132000    1.483400    0.649300
C     -1.805700    0.769500    0.549700
C     -0.812100    1.232400   -0.322400
C      0.416800    0.571000   -0.422000
C      0.666400   -0.568800    0.349400
C      1.957900   -1.318100    0.290700
O      2.224700   -2.135500    1.171000
C      2.935700   -1.061300   -0.838100
C      3.978800   -0.040900   -0.417500
C      5.019400   -0.680400    0.457200
O      5.801900   -1.553600    0.122600
O      5.020700   -0.185300    1.707600
C     -0.322800   -1.027900    1.228700
C     -1.549300   -0.366000    1.326400
