20

C      1.919600    2.070500    4.038900
C      1.087500    1.092800    3.224100
C      1.808800    0.681800    1.936800
C      0.966700   -0.257900    1.103300
N      0.797100   -1.479900    1.671000
C      0.058400   -2.406800    1.042700
N     -0.006200   -3.630600    1.703400
C     -0.542700   -2.170000   -0.187500
C     -1.313900   -3.207700   -0.808200
N     -1.955400   -4.042100   -1.299200
C     -0.380300   -0.905800   -0.797400
C     -1.019300   -0.632800   -2.097300
C     -0.413900   -1.006900   -3.303000
C     -1.048700   -0.737700   -4.513500
C     -2.275200   -0.095600   -4.484300
N     -2.893800    0.286300   -3.347200
C     -2.258900    0.001800   -2.186300
C      0.408000    0.079100   -0.141200
C      0.634500    1.442800   -0.767900
C     -0.288600    2.514000   -0.204700
