16

C      4.448800    0.530800    0.971700
C      2.931600    0.628500    0.975300
C      2.363800    0.542800   -0.441500
C      0.855200    0.642700   -0.438500
N      0.362600    1.920800   -0.522000
C     -0.996400    1.979500   -0.515400
N     -1.749000    3.079800   -0.596900
N     -3.008600    2.601800   -0.551300
C     -3.107800    1.232100   -0.469700
N     -4.304500    0.605400   -0.440500
C     -1.806900    0.800900   -0.423900
C     -1.342500   -0.497800   -0.322000
C      0.062800   -0.526800   -0.329300
C      0.524300   -1.956200   -0.257200
C     -0.737300   -2.667300    0.260100
C     -1.941300   -1.859500   -0.242000
