15

C      4.085400   -0.791100   -1.145400
C      4.144300   -0.332300    0.303500
C      2.797300   -0.414200    1.023000
C      1.758800    0.560700    0.473800
C      0.468900    0.480600    1.269400
O      0.448600    0.703000    2.481300
C     -0.791300    0.174800    0.535400
C     -1.890700    0.950100    0.675900
C     -1.982500    2.199000    1.511800
C     -3.116000    0.605200   -0.035700
C     -3.170000   -0.458800   -0.850700
C     -4.395500   -0.866000   -1.608500
N     -2.048800   -1.234900   -1.009200
C     -0.852400   -1.010900   -0.372200
O      0.107400   -1.754000   -0.550300
