18

C      5.558800   -0.308200   -0.291000
C      4.106900   -0.753200   -0.376000
C      3.175900    0.430500   -0.651600
C      1.708800    0.012700   -0.763700
C      1.025400   -0.129500    0.587300
O      1.630400   -0.443200    1.611700
C     -0.443100    0.098300    0.623400
C     -0.956600    1.039600    1.434400
O     -0.133800    1.834400    2.203400
O     -2.309500    1.312100    1.548200
C     -3.193300    0.586900    0.793600
C     -4.550000    0.871500    0.949400
C     -5.498200    0.169000    0.202700
C     -5.090900   -0.815600   -0.699200
C     -3.733800   -1.100100   -0.855900
C     -2.788700   -0.394500   -0.104500
C     -1.352300   -0.669900   -0.248000
O     -0.945500   -1.493400   -1.058000
