19

C      3.853800    1.438700    0.040100
C      3.500100    0.206600   -0.778600
C      3.490000   -1.085600    0.043700
C      2.378900   -1.182300    1.099400
C      0.984900   -1.198300    0.527600
C      0.098600   -0.191400    0.629500
O      0.463500    0.995200    1.225200
N     -1.143300   -0.315600    0.068800
C     -1.438500   -1.454600   -0.686100
N     -0.670400   -2.478400   -0.830900
C      0.544600   -2.463200   -0.173100
O      1.279400   -3.445900   -0.154500
N     -2.713800   -1.306400   -1.212700
C     -3.303700   -0.184900   -0.621400
C     -4.568300    0.331200   -0.786700
C     -4.877100    1.503000   -0.092200
C     -3.922600    2.128000    0.734100
C     -2.629500    1.607400    0.871100
C     -2.321200    0.464300    0.164700
