32

Si     6.372100    1.524800   -0.673600
C      7.849500    0.394600   -0.392600
C      7.463600   -0.790800    0.113100
C      6.030800   -0.938300    0.329100
C      5.280900    0.132700   -0.006900
C      3.870600    0.235700    0.112000
C      3.099500    1.317500    0.495700
C      1.724800    1.002200    0.459400
C      0.696500    1.906600    0.851500
N      0.996400    3.106900    1.331700
S     -0.496500    3.717800    1.747500
N     -1.465000    2.450500    1.281600
C     -0.690200    1.486000    0.734800
C     -1.135400    0.220500    0.196800
C      0.003500   -0.683500    0.020200
C     -0.451300   -1.999200   -0.176200
C      0.287000   -3.155000   -0.308100
N     -0.582600   -4.215900   -0.416200
C     -1.874700   -3.765300   -0.337100
C     -1.825300   -2.397300   -0.188200
C     -2.938100   -1.533500   -0.093900
C     -4.268300   -2.001700   -0.077200
C     -5.317800   -1.101900   -0.062700
C     -5.067600    0.260800   -0.185400
C     -6.167500    1.127700   -0.309400
C     -5.989800    2.481400   -0.566700
C     -4.707500    2.970500   -0.735600
C     -3.610000    2.113300   -0.591200
C     -3.727200    0.747200   -0.236300
C     -2.591300   -0.149200   -0.032100
C      1.369200   -0.274600    0.080400
S      2.851600   -1.108900   -0.252400
