19

C     -5.562800   -1.776100   -0.915400
C     -4.473500   -1.811500    0.145400
C     -3.213800   -1.031800   -0.241800
C     -3.442100    0.479500   -0.332000
C     -2.188900    1.262200   -0.747000
C     -1.039900    1.214400    0.261200
N     -1.369500    1.834400    1.525300
C     -0.283700    2.525800    2.030200
O     -0.207500    3.025900    3.136100
N      0.700000    2.550400    1.058900
C      0.186400    2.038100   -0.189900
C      1.236900    1.294300   -1.017400
C      1.887200    0.092500   -0.319900
C      2.992200   -0.513400   -1.191000
C      3.596300   -1.798200   -0.610400
C      4.322000   -1.629600    0.724700
C      5.579300   -0.808600    0.614500
O      6.168400   -0.483300   -0.401500
O      6.057400   -0.459200    1.824800
