23

C      6.400600    0.798900    0.771500
C      5.203900    1.718300    0.957500
C      4.370500    1.903600   -0.312700
C      3.776900    0.625800   -0.916600
C      2.821400   -0.105600    0.031900
C      2.193100   -1.365700   -0.571500
S      1.118400   -1.068400   -2.016300
C     -0.216400   -0.241800   -1.290800
C     -1.217100   -0.813700   -0.594900
C     -1.248700   -2.222300   -0.352400
N     -1.255600   -3.361900   -0.135700
C     -2.283100    0.070600    0.035500
C     -3.657800   -0.581900    0.155400
C     -4.259400   -0.714200    1.417400
C     -5.518200   -1.303800    1.545100
C     -6.182100   -1.765300    0.416300
O     -7.407600   -2.336200    0.589600
C     -5.609400   -1.645000   -0.844400
C     -4.350800   -1.052500   -0.974700
C     -2.435300    1.427300   -0.666300
C     -1.113700    2.011500   -1.087500
O     -0.924700    3.220000   -1.184600
N     -0.158600    1.111500   -1.464000
