20

C     -3.160400   -0.487200    1.111600
C     -3.962700   -0.381500   -0.176400
C     -3.471100    0.718700   -1.120100
C     -2.330800    0.315000   -2.070400
N     -1.045600    0.046300   -1.411600
C     -0.511100   -1.261900   -1.327400
S     -1.192200   -2.676500   -1.923900
N      0.702800   -1.412100   -0.683100
C      1.382100   -0.344100   -0.159900
C      0.859600    0.909000   -0.282900
O      1.672400    1.834900    0.287600
C      2.739500    1.140900    0.786800
C      3.821400    1.704500    1.459500
C      4.816800    0.821100    1.892800
C      4.713000   -0.551700    1.653400
Cl     5.962800   -1.601500    2.205200
C      3.615500   -1.098300    0.974300
C      2.605000   -0.226200    0.531700
C     -0.378800    1.209200   -0.931400
O     -0.816800    2.348900   -1.070200
