23

C     -1.359200   -4.182600    0.457400
C     -2.063600   -3.035600    1.165400
C     -1.292100   -1.716600    1.103300
C     -1.167500   -1.159600   -0.314100
N     -0.523100    0.147200   -0.328000
C     -1.140000    1.386000   -0.208400
N     -2.513900    1.478500   -0.004400
C     -3.260100    2.589600   -0.357200
C     -4.701600    2.482100    0.070100
O     -2.861000    3.548000   -1.006200
C     -0.127500    2.342900   -0.290600
C     -0.214600    3.756500   -0.087700
N     -0.230900    4.896400    0.137900
C      1.096200    1.666700   -0.510300
N      2.362000    2.133800   -0.657300
C      3.293600    1.182800   -0.832400
C      4.614500    1.578100   -0.999900
C      5.638100    0.648100   -1.186000
C      5.336200   -0.706100   -1.204900
C      4.013200   -1.118100   -1.037200
C      2.983700   -0.204100   -0.851300
N      1.732900   -0.673400   -0.694500
C      0.824500    0.309000   -0.528000
