20

Si     1.405900    1.712800   -0.597200
C      2.471500    0.268900   -0.007400
C      1.728000   -0.811800    0.313700
C      0.274800   -0.625900    0.149300
C     -0.675900   -1.603300    0.428400
C     -2.038100   -1.288600    0.221500
S     -3.374300   -2.359900    0.506500
C     -4.484800   -1.141800   -0.001900
C     -5.888000   -0.959000   -0.164800
C     -6.042000    0.328700   -0.630700
N     -4.813000    0.920000   -0.753500
C     -3.857300    0.010400   -0.365300
C     -2.434800   -0.029300   -0.251800
C     -1.457200    0.956200   -0.532000
C     -0.115300    0.638300   -0.325700
C      3.892800    0.285000    0.047700
C      4.778300   -0.757100   -0.195300
C      6.146300   -0.393500   -0.033600
C      6.283600    0.921300    0.339800
S      4.775500    1.702700    0.493100
