33

Si     6.319900   -1.304900    0.242800
C      7.891900   -0.313500    0.469700
C      7.619100    1.000800    0.543000
C      6.209600    1.346200    0.433500
C      5.349800    0.312100    0.274300
C      3.894700    0.421200    0.140200
C      3.029900   -0.650600    0.016000
C      1.639100   -0.412900   -0.105300
C      0.728900   -1.494200   -0.277300
N      1.081200   -2.789200   -0.389400
S     -0.296400   -3.642300   -0.693000
N     -1.400300   -2.422000   -0.648500
C     -0.762400   -1.274300   -0.351800
C     -1.379000    0.029700   -0.205300
C     -0.372700    1.085600   -0.250600
C     -0.952600    2.382300   -0.505600
N     -0.279500    3.536900   -0.663300
S     -1.362000    4.724200   -1.026800
N     -2.757500    3.849700   -1.002200
C     -2.431200    2.580100   -0.690500
C     -3.355600    1.505600   -0.521100
C     -4.726500    1.759300   -0.720100
C     -5.662300    0.769700   -0.480000
C     -5.263800   -0.442800    0.070900
C     -6.258300   -1.368200    0.432200
C     -5.936900   -2.541600    1.103300
C     -4.618700   -2.781300    1.446000
C     -3.623900   -1.871400    1.068800
C     -3.882500   -0.705500    0.305600
C     -2.854900    0.236000   -0.138800
C      1.084300    0.880800   -0.116200
C      2.069500    1.876100    0.017800
N      3.411800    1.680500    0.144200
