23

C     -8.476600    0.627500    0.725400
C     -7.004000    0.827900    0.401700
C     -6.432200   -0.373400   -0.357800
C     -4.959400   -0.179500   -0.720600
O     -4.190500   -0.124700    0.487200
C     -2.847600   -0.064700    0.235600
C     -2.051100   -1.083800    0.747100
C     -0.666900   -1.055100    0.544400
C     -0.044800    0.002400   -0.150800
C      1.417500    0.032800   -0.356600
N      1.951200    1.110100   -0.962600
C      3.290100    1.102000   -1.124500
C      4.111400    0.075200   -0.704000
C      5.558400    0.216500   -0.937100
O      6.024300    1.005500   -1.743700
O      6.271400   -0.596100   -0.117200
C      7.701100   -0.504200   -0.234100
C      8.228000    0.595300    0.668400
C      3.473400   -0.996700   -0.096600
N      4.138400   -2.163800    0.309500
N      2.138200   -1.023400    0.069600
C     -0.878400    1.034000   -0.630000
C     -2.264900    1.006400   -0.436100
