20

C      7.178700    1.943900    0.070900
C      5.939600    1.121200   -0.245500
C      6.046500   -0.293700    0.328300
C      4.825600   -1.145200   -0.009500
O      3.674600   -0.582000    0.615100
C      2.472600   -1.307200    0.353100
C      1.860600   -0.901700   -0.986000
C      0.568100   -1.658200   -1.283900
N     -0.502800   -1.354700   -0.355200
C     -1.199700   -0.176800   -0.459700
O     -0.954000    0.709000   -1.264600
N     -2.214600   -0.127800    0.456300
C     -3.033000    1.075800    0.600700
C     -4.114400    1.196100   -0.486500
C     -5.315900    0.228200   -0.390500
C     -6.338500    0.581300   -1.476800
C     -4.925800   -1.243600   -0.522200
C     -3.610700    1.108200    2.014500
O     -3.414200    0.272400    2.886300
O     -4.359700    2.198000    2.271000
