21

C     -6.158600    1.934500    0.651800
C     -5.197400    1.013800   -0.081600
C     -4.574000   -0.013300    0.863700
N     -3.656700   -0.891100    0.155300
C     -4.080900   -2.081000   -0.362700
O     -5.219100   -2.519900   -0.366200
S     -2.732300   -2.973900   -1.024700
C     -1.607800   -1.547900   -0.903300
C     -0.256800   -1.951500   -0.326500
C      0.821200   -0.951000   -0.713000
O      0.667000   -0.171900   -1.646200
N      1.959000   -1.097300    0.063400
C      3.158800   -0.359700   -0.022600
C      3.380800    0.670900   -0.935300
C      4.603100    1.353600   -0.953800
C      5.619500    1.023900   -0.052300
C      6.938400    1.736000   -0.098400
C      5.403700   -0.017300    0.853900
C      4.182100   -0.698300    0.871600
C     -2.324900   -0.576000    0.014700
O     -1.775000    0.375300    0.559000
