21

C     -2.343200    3.303800   -0.644300
C     -1.714200    1.929500   -0.805400
C     -1.163700    1.411600    0.521700
N     -0.547700    0.105300    0.399700
C     -1.148800   -1.129700    0.231700
C     -2.556500   -1.426500    0.180100
C     -3.149300   -2.324600   -0.690000
C     -4.556400   -2.437800   -0.495900
C     -4.994200   -1.641600    0.537100
S     -3.711100   -0.780600    1.266700
N     -0.241800   -2.076600    0.041600
C      0.963200   -1.450000    0.132700
N      2.182000   -2.020100    0.014400
C      3.200800   -1.151300    0.132800
C      4.494800   -1.644800    0.029600
C      5.607900   -0.810200    0.139400
C      5.426200    0.548300    0.356900
C      4.132700    1.061700    0.463100
C      3.013900    0.245800    0.356700
N      1.797500    0.815100    0.469800
C      0.807900   -0.092300    0.352500
