18

C      4.706900    0.852200    0.296500
C      3.233500    0.530200    0.482600
C      2.578800    0.123600   -0.836500
N      1.161900   -0.179500   -0.659500
N      0.303500    0.882800   -0.781100
C     -0.967500    0.700700   -0.587800
C     -1.860300    1.913200   -0.746300
C     -2.314500    2.494900    0.557200
O     -2.214900    1.999100    1.665900
O     -2.936000    3.680500    0.394600
C     -1.552200   -0.613200   -0.235100
C     -2.924400   -0.821700   -0.042200
C     -3.400600   -2.094000    0.288800
C     -2.514600   -3.160200    0.428600
C     -1.149100   -2.955400    0.238400
C     -0.670700   -1.680100   -0.093900
C      0.773300   -1.465300   -0.296100
O      1.550700   -2.405200   -0.145100
