18

C      6.620500   -0.928800    0.286100
C      5.155600   -1.065400   -0.094400
C      4.691200    0.106200   -0.956300
N      3.303700   -0.031500   -1.354400
C      2.282000    0.295900   -0.481900
O      2.490400    0.758900    0.631000
N      1.056200    0.041000   -1.057300
C     -0.219000    0.164200   -0.466700
C     -0.421000    0.431500    0.890300
C     -1.708200    0.537200    1.440100
C     -2.791000    0.357900    0.574100
C     -2.622200    0.088200   -0.778900
C     -1.326900   -0.013900   -1.310100
N     -3.832600   -0.040000   -1.411700
C     -4.745500    0.150800   -0.480800
C     -6.214400    0.123700   -0.696200
N     -4.155000    0.385800    0.742100
C     -4.855000    0.630100    1.980000
