31

Si     5.867900    1.379600   -0.010300
C      7.364400    0.415700    0.597900
C      7.011200   -0.813100    1.013800
C      5.592800   -1.123400    0.902600
C      4.812100   -0.138500    0.405600
C      3.409700   -0.258600    0.196300
C      2.662900   -1.409700    0.006200
C      1.292700   -1.117300   -0.149100
C      0.295500   -2.100700   -0.406500
N      0.618300   -3.377800   -0.558400
S     -0.842800   -4.083400   -0.936200
N     -1.830000   -2.745100   -0.878000
C     -1.088800   -1.673600   -0.524000
C     -1.552400   -0.314200   -0.357200
C     -0.450800    0.618900   -0.245500
C     -0.805500    2.004300   -0.325300
N      0.037400    3.052600   -0.276800
S     -0.839900    4.431800   -0.469400
N     -2.350000    3.791000   -0.624100
C     -2.235100    2.452300   -0.517400
C     -3.323700    1.525400   -0.557600
C     -4.659200    2.061300   -0.742000
C     -5.828100    1.292900   -0.721200
C     -5.541400   -0.028000   -0.416100
C     -6.560400   -0.930000   -0.225300
S     -5.955700   -2.442000    0.295000
C     -4.335000   -1.870100    0.267700
C     -4.214900   -0.593400   -0.235600
C     -2.971100    0.130400   -0.382900
C      0.912500    0.205100   -0.096300
S      2.366800    1.117200    0.164400
