19

C      6.396100    0.550100    0.547700
C      5.938300   -0.303100   -0.626600
C      4.572900   -0.940100   -0.390200
N      3.513700    0.047200   -0.331500
C      2.264900   -0.328800    0.101000
O      1.981900   -1.438100    0.528000
N      1.379900    0.715600   -0.015400
C      0.019000    0.574500    0.476900
C     -0.856200   -0.297900   -0.427700
C     -2.268500   -0.376300    0.067900
C     -2.788800   -1.334900    0.923700
C     -2.143800   -2.510400    1.565300
N     -4.113700   -1.040200    1.124400
C     -4.468800    0.091600    0.430200
C     -5.701400    0.751100    0.350800
C     -5.773200    1.897100   -0.446400
C     -4.656000    2.361600   -1.135700
C     -3.431600    1.689100   -1.044600
C     -3.332100    0.530500   -0.246400
