16

C      4.533400    0.233000    0.316700
C      3.276600   -0.366800    0.925800
C      2.012500    0.231300    0.308100
N      0.838700   -0.372300    0.935900
C     -0.401400   -0.002300    0.394600
C     -0.806700    1.345500    0.228100
C     -2.069900    1.735500   -0.289000
C     -3.032800    0.782200   -0.663100
N     -4.311000    1.165000   -1.186100
O     -5.322300    0.720800   -0.628900
O     -4.304900    1.972300   -2.126400
C     -2.702600   -0.574400   -0.527200
N     -3.368200   -1.707000   -0.820300
N     -2.509300   -2.659500   -0.441700
N     -1.314100   -2.301300    0.037300
C     -1.387400   -0.956800    0.008700
