17

C     -5.908600    0.474700   -0.528700
C     -4.409400    0.368200   -0.741600
C     -3.721000   -0.342600    0.417000
O     -2.318300   -0.398600    0.133400
C     -1.588500   -0.979500    1.105600
O     -1.975000   -1.508100    2.131000
C     -0.127800   -0.962800    0.706200
C      0.418500   -2.267200    0.204400
N      0.524500    0.155600    0.828600
N      1.844100    0.176500    0.480900
C      2.590100    1.345200    0.576600
O      2.143400    2.425600    0.953700
C      3.972200    1.159900    0.178200
C      5.030900    2.047000    0.126700
C      6.151900    1.319400   -0.338300
C      5.714700    0.032600   -0.543800
O      4.396500   -0.079400   -0.235600
