22

C     -0.851000    2.618900   -2.271600
C     -1.597800    2.778800   -0.955400
C     -2.808500    1.854400   -0.855000
O     -2.434700    0.478400   -1.022600
C     -1.958800   -0.141600    0.082200
O     -1.812000    0.369100    1.180200
N     -1.652800   -1.422800   -0.232400
C     -0.957500   -2.301600    0.675800
C      0.601600   -2.266200    0.527500
N      1.169800   -1.006200    0.156600
C      1.376100   -0.051600    1.101400
O      1.313300   -0.240600    2.306200
O      1.657200    1.125000    0.494500
C      1.868000    2.212400    1.404700
C      2.256000    3.441400    0.591700
C      2.494300    4.652300    1.475200
N      0.849000   -3.285600   -0.470900
C      2.191000   -3.718000   -0.783900
C     -0.196100   -4.224900   -0.421300
O     -0.179200   -5.341300   -0.912200
N     -1.245900   -3.663000    0.298000
C     -2.521400   -4.291600    0.537600
