24

C     -0.430200    3.234100   -1.331300
C     -0.042600    2.074900   -2.239800
N     -0.119000    0.779000   -1.548300
C     -1.379700    0.154800   -1.573000
O     -2.330200    0.706000   -2.146100
C     -1.596100   -1.212000   -0.891100
O     -2.896600   -1.767300   -1.078500
C     -3.875800   -1.427400   -0.186900
C     -3.838000   -0.359600    0.710400
C     -4.918200   -0.123100    1.567000
C     -6.041600   -0.947200    1.526200
C     -6.090100   -2.006300    0.623600
C     -5.011700   -2.240600   -0.231200
C      0.950000    0.211800   -0.846300
N      0.971000   -0.926900   -0.193400
N      2.183800   -1.194700    0.397200
C      3.076700   -0.248900    0.181800
C      4.452500   -0.274500    0.692900
C      5.404600    0.726600    0.458500
C      6.691400    0.612900    0.988500
C      6.997800   -0.504500    1.744300
N      6.117700   -1.492700    1.997200
C      4.874900   -1.355000    1.468700
S      2.454700    1.039600   -0.771900
