24

C     -2.868200   -1.117400   -2.918600
C     -1.723200   -0.573500   -2.074400
N     -1.985800   -0.696100   -0.636800
C     -1.563400   -1.875200   -0.008500
O     -1.235700   -2.875100   -0.656300
C     -1.459900   -1.851700    1.518100
S      0.087500   -2.616400    2.092000
C      1.253200   -1.538000    1.373800
N      0.924400   -0.339600    0.818600
C      2.075800    0.126600    0.391100
N      2.339600    1.292900   -0.267900
C      3.582600    1.513100   -0.580700
C      3.908200    2.793200   -1.310100
C      4.726100    0.593400   -0.274100
C      4.422600   -0.544000    0.376300
C      5.445800   -1.568100    0.756200
N      3.087000   -0.787500    0.715300
N      2.549200   -1.845100    1.363000
C     -2.860300    0.257200   -0.035200
C     -3.923900   -0.157300    0.779300
C     -4.793100    0.776700    1.349800
C     -4.612000    2.136000    1.109100
C     -3.566200    2.560900    0.294000
C     -2.699400    1.626400   -0.279900
