22

C     -4.701800   -0.763900   -2.019500
C     -4.290900    0.457400   -1.209300
N     -3.286800    0.105500   -0.196700
C     -3.814800   -0.261100    1.124000
C     -3.903000    0.955100    2.035100
C     -1.920500    0.121800   -0.470000
C     -1.419100    0.339700   -1.777600
C     -0.048100    0.362900   -2.086900
C     -0.956100   -0.077400    0.537000
C      0.406400   -0.054600    0.238900
C      0.861500    0.165100   -1.070800
C      2.307300    0.136900   -1.086900
C      3.196400    0.300900   -2.137700
C      4.567000    0.225200   -1.870100
C      5.028500   -0.012200   -0.561900
C      6.479800   -0.089000   -0.297200
O      7.314600    0.047300   -1.182700
C      4.135100   -0.178300    0.502000
C      2.776000   -0.101400    0.225700
C      1.591900   -0.243600    1.187800
C      1.568800   -1.636700    1.827000
C      1.620500    0.853200    2.258400
