24

C     -5.853800    1.197700   -1.491400
C     -5.615000    0.920800   -0.013900
N     -4.728000   -0.235800    0.169700
C     -5.395500   -1.535900    0.312100
C     -5.658100   -1.858500    1.776200
C     -3.344200   -0.104200    0.208400
C     -2.694500    1.113000   -0.056300
C     -1.295800    1.256400   -0.019500
C     -0.483500    0.174900    0.290300
N      0.924500    0.225900    0.344700
C      1.729200    1.339500    0.185200
O      1.363000    2.498400    0.033100
C      3.193700    1.070000    0.251700
C      4.025700    2.040000    0.828900
C      5.404100    1.829200    0.905300
C      5.954000    0.656300    0.393400
C      5.125500   -0.317800   -0.174700
C      3.750000   -0.106600   -0.266000
O      5.596500   -1.504500   -0.676900
C      6.939200   -1.760000   -0.246300
C      7.795700   -0.512000   -0.382600
O      7.315800    0.524700    0.481200
C     -1.095000   -1.048600    0.554900
C     -2.493400   -1.178600    0.513900
