21

C      3.342400   -0.714100   -1.555700
C      3.277000   -1.141000   -0.096500
N      2.723800   -0.094600    0.750600
C      3.606400    0.803100    1.483400
C      3.811700    2.120000    0.748800
C      1.354400    0.072700    0.831500
N      0.872500    1.027600    1.610400
C     -0.447200    1.137700    1.634800
S     -1.099900    2.386000    2.724800
C     -2.811200    2.475200    2.124600
C     -2.900300    2.979100    0.704400
O     -2.045800    3.534900    0.034800
O     -4.137200    2.799600    0.185900
N     -1.298600    0.371600    0.966400
C     -0.747600   -0.567700    0.211200
N     -1.573500   -1.415000   -0.505500
C     -0.979100   -2.379300   -1.422600
C     -0.616800   -3.663500   -0.690900
C     -2.998100   -1.130700   -0.596900
C     -3.290000   -0.119500   -1.696700
N      0.567900   -0.738800    0.130700
