21

C      4.339400   -1.818800    1.013600
C      3.090800   -0.954100    0.872500
N      3.013000   -0.240900   -0.413200
C      4.128900    0.683400   -0.664000
C      4.292700    1.831400    0.327900
C      1.697500    0.430700   -0.583200
C      0.568200   -0.561200   -0.816400
O      0.719900   -1.723800   -1.181700
N     -0.745900   -0.085400   -0.547100
C     -1.855900   -0.915200   -0.368100
C     -2.917300   -0.171600    0.101000
C     -2.525800    1.184900    0.088200
C     -3.210900    2.378000    0.404400
C     -2.588600    3.611800    0.223000
C     -1.300900    3.669300   -0.284900
C     -0.597400    2.500100   -0.597300
C     -1.200900    1.241300   -0.376300
C     -4.233300   -0.769300    0.476800
C     -4.113600   -2.286200    0.688200
C     -3.315000   -2.948100   -0.443400
C     -1.876700   -2.406400   -0.539400
