22

C      4.491400    2.039900    1.868500
C      3.217100    1.263900    1.549500
N      3.309900    0.516900    0.281900
C      4.187500   -0.658100    0.396600
C      4.460100   -1.345400   -0.937800
C      1.962800    0.210100   -0.246700
C      1.092100   -0.776500    0.565100
N     -0.275500   -0.874300    0.021500
C     -0.626900   -1.839700   -0.919400
S      0.359200   -3.034700   -1.562600
N     -1.917900   -1.822800   -1.373100
C     -2.882800   -0.906600   -0.962800
C     -4.176600   -0.983900   -1.484500
C     -5.091400   -0.049400   -1.045800
C     -4.757500    0.925200   -0.133200
C     -3.488500    1.021800    0.394200
C     -2.541200    0.082900   -0.034900
C     -1.159600    0.117800    0.476400
O     -0.844700    1.009200    1.262600
O     -5.805100    1.739900    0.160100
C     -6.838100    1.171100   -0.671300
O     -6.390600    0.032900   -1.438800
