22

C     -3.266100    1.916000    1.213200
C     -3.220400    0.423700    1.500900
N     -3.491800   -0.338000    0.249400
C     -4.944900   -0.420700   -0.078600
C     -5.170700    0.127900   -1.476800
S     -2.678700   -1.843500    0.126900
O     -3.033700   -2.453500   -1.136700
O     -2.872500   -2.538900    1.381900
C     -0.977700   -1.350000    0.001200
C     -0.568600   -0.613400   -1.110900
C      0.767900   -0.221000   -1.220700
C      1.701100   -0.560900   -0.228800
N      3.026400   -0.116100   -0.422500
C      4.134200   -0.348700    0.383600
O      4.106600   -1.033700    1.401900
C      5.359700    0.293000   -0.100300
C      5.537700    1.351100   -0.978000
C      6.913300    1.667400   -1.188900
C      7.746700    0.850400   -0.461600
S      6.876100   -0.281900    0.473800
C      1.272700   -1.303200    0.876200
C     -0.063500   -1.703900    0.992700
