21

C     -3.807300    0.387400   -2.320900
C     -2.609100   -0.222500   -1.618400
N     -2.673300   -0.135000   -0.141700
C     -3.773300   -0.877700    0.515800
C     -4.968100   -0.011600    0.881000
S     -2.062900    1.244900    0.634100
O     -2.059100    1.012100    2.063400
O     -2.761700    2.386600    0.078800
C     -0.358200    1.315300    0.099300
C      0.022400    2.453500   -0.628500
C      1.319000    2.569000   -1.100500
C      2.234500    1.552400   -0.842600
C      1.895700    0.397700   -0.101400
C      2.862000   -0.624100    0.148000
N      4.195000   -0.462700   -0.324000
C      5.067400    0.030500    0.746600
C      4.721200   -1.621900   -1.045800
C      2.492700   -1.757700    0.887000
C      1.200800   -1.896600    1.371700
C      0.256600   -0.902000    1.126600
C      0.565200    0.267000    0.388000
