18

C     -2.587000   -2.053900    0.293800
C     -1.917300   -1.101200   -0.684300
N     -1.893200    0.277600   -0.110900
C     -3.199600    0.987100   -0.257200
C     -3.659900    1.460800    1.110500
S     -0.545300    1.234700   -0.643500
O     -0.687300    2.544200   -0.039600
O     -0.513400    1.052100   -2.079100
C      0.828500    0.453100    0.155900
C      0.631300   -0.032500    1.462500
C      1.667300   -0.669200    2.129900
C      2.896300   -0.809000    1.496400
C      3.097800   -0.301500    0.200400
C      4.349200   -0.431000   -0.418300
C      4.554900    0.083500   -1.690100
C      3.496000    0.716400   -2.301900
N      2.279500    0.855800   -1.733500
C      2.055900    0.352800   -0.500100
