17

C      1.050800    2.533800    0.573500
C      1.405900    1.233800   -0.131100
N      1.130500    0.074800    0.765000
C      2.222200   -0.214700    1.741100
C      3.416800   -0.936000    1.138100
S      0.455600   -1.309100   -0.003200
O      1.233800   -1.511100   -1.205600
O      0.302900   -2.341000    1.000200
C     -1.165800   -0.779800   -0.420200
C     -1.889000    0.056100    0.462900
C     -3.198400    0.514500    0.193600
C     -3.900200    0.169500   -0.972500
C     -3.230300   -0.686500   -1.880700
N     -3.736100   -1.135900   -3.038800
S     -2.573800   -2.109500   -3.712500
N     -1.379200   -1.995600   -2.570900
C     -1.827400   -1.182900   -1.601300
