23

C     -2.256800   -4.148500    1.322300
C     -2.517900   -3.153800    0.201700
N     -1.957700   -1.836200    0.498100
C     -2.766400   -0.935400    1.322300
C     -3.303900    0.259800    0.570600
C     -3.848200    0.134200   -0.716300
C     -4.359000    1.248300   -1.385000
C     -4.341800    2.499100   -0.772600
C     -3.817800    2.636900    0.510400
C     -3.307200    1.523900    1.180900
C     -0.627600   -1.590700    0.144900
O      0.050600   -2.447500   -0.427300
C     -0.048200   -0.212300    0.492900
O      1.325400   -0.103800    0.115800
C      1.907900    1.061900    0.487500
O      1.360600    1.964200    1.106200
C      3.324500    1.116400    0.045900
C      4.069200    2.250500    0.333800
N      5.371300    2.383700   -0.031700
C      5.906800    1.333000   -0.702300
C      7.337500    1.426600   -1.129700
C      5.153900    0.197500   -0.988200
N      3.857100    0.061000   -0.625000
