16

C     -2.837000    2.269000   -1.185500
C     -2.472900    1.849100    0.229500
N     -1.442600    0.837100    0.247200
C     -0.076100    1.130500    0.298200
O      0.418300    2.240400    0.374200
C      0.617700   -0.210300    0.228500
C      1.925900   -0.514700    0.258200
N      3.111900    0.205600    0.365600
C      4.408200   -0.473600    0.417000
C      3.166600    1.637700    0.654700
C     -0.444900   -1.226100    0.103600
C     -0.415400   -2.608300   -0.017700
C     -1.628900   -3.294100   -0.130600
C     -2.848300   -2.599200   -0.123100
C     -2.874100   -1.207900   -0.000900
C     -1.664700   -0.541600    0.113100
