22

C     -1.933400   -2.412600    1.991100
C     -0.870300   -1.338300    1.840200
N     -0.612400   -1.016200    0.448300
C      0.325400   -1.598900   -0.381800
C      1.280300   -2.675700    0.033200
S      3.005600   -2.101600    0.001400
C      2.905800   -0.793500    1.127000
N      2.560700   -0.908400    2.389500
C      2.612100    0.367700    2.889500
C      2.961400    1.266100    1.908200
N      3.144000    0.508900    0.780500
C      3.489600    1.019700   -0.523700
N      0.267100   -1.064700   -1.589700
C     -0.712900   -0.111000   -1.539400
C     -1.164800    0.748100   -2.550100
C     -2.195800    1.652000   -2.253800
C     -2.654300    2.553000   -3.338400
O     -2.201400    2.603100   -4.466700
O     -3.665000    3.355800   -2.959600
C     -2.761400    1.691500   -0.971500
C     -2.317500    0.837200    0.046000
C     -1.285500   -0.053200   -0.274300
