25

Si    -4.630700    0.218900   -1.339900
C     -5.936900    1.428500   -0.715700
C     -5.479400    2.154000    0.321400
C     -4.113900    1.862300    0.729400
C     -3.498300    0.899200    0.013700
C     -2.129200    0.412500    0.192300
C     -1.130000    1.067100   -0.537300
C      0.209000    0.688300   -0.450300
C      1.148500    1.392900   -1.225500
C      2.479000    1.005300   -1.134900
O      3.519200    1.579400   -1.818200
C      4.647700    0.908700   -1.447600
C      6.003300    1.079200   -1.841300
C      6.812800    0.190100   -1.224700
Si     5.827700   -0.972800   -0.045700
C      4.289200   -0.071200   -0.540300
C      2.918500   -0.034100   -0.322200
C      1.967400   -0.727300    0.447600
C      0.584700   -0.382800    0.403900
C     -0.431900   -1.055300    1.175000
C     -0.149100   -2.129400    2.060400
C     -1.136400   -2.772100    2.810600
C     -2.451300   -2.361200    2.705100
C     -2.771600   -1.312700    1.846800
C     -1.791800   -0.646100    1.068800
