22

C     -2.948900   -2.906700   -0.760700
C     -2.071900   -1.681800   -0.955500
N     -1.346700   -1.325100    0.244400
C     -0.097600   -1.733400    0.621400
S      0.921300   -2.763500   -0.320500
C      2.383000   -1.684600   -0.427300
C      2.090500   -0.400000   -1.191600
O      1.104100   -0.248900   -1.914600
C      3.070900    0.724000   -1.077900
C      2.708200    1.978300   -1.589500
C      3.590000    3.057800   -1.510700
C      4.841900    2.891500   -0.923100
C      5.214200    1.647300   -0.416800
C      4.334100    0.563700   -0.493500
N      0.229600   -1.191300    1.770200
N     -0.833600   -0.421100    2.179100
C     -1.771900   -0.494200    1.255000
C     -3.023700    0.191900    1.320900
C     -3.473500    1.204300    0.496300
C     -4.779000    1.653900    0.853800
C     -5.275000    0.976400    1.945200
S     -4.169100   -0.188700    2.533900
