17

C     -3.878600   -3.686700   -0.341100
C     -4.194000   -2.221400   -0.581700
N     -3.140000   -1.348800   -0.100600
C     -3.103100   -0.692900    1.093000
C     -1.932900    0.027800    1.087200
C     -1.309600   -0.257900   -0.163500
C     -0.027000    0.265500   -0.685000
O      0.244000    0.291200   -1.881000
N      0.862400    0.646900    0.316300
C      2.094700    1.237800    0.165500
C      2.588400    2.023400   -0.805800
C      1.912700    2.573400   -1.926900
N      1.426500    3.127800   -2.823100
C      3.998900    2.439800   -0.501200
C      4.401800    1.496300    0.625800
C      3.094100    1.062400    1.276000
N     -2.066700   -1.116500   -0.871400
