25

C      5.706700    0.536300    1.796500
C      5.159800   -0.534600    0.859600
N      4.220100    0.016400   -0.124600
C      4.872100    0.899200   -1.098800
C      3.809200    1.040100   -2.170600
C      3.138900   -0.324700   -2.222000
C      3.579100   -1.048300   -0.939800
C      2.392200   -1.712800   -0.218200
N      1.553700   -0.722300    0.433900
C      0.336800   -1.055300    0.986400
O     -0.158200   -2.173400    0.880900
C     -0.336000    0.106800    1.727000
O     -1.742900    0.003600    1.877300
C     -2.554400    0.227900    0.784800
C     -2.152200    0.571700   -0.446100
C     -3.099600    0.801800   -1.558000
O     -2.635700    1.128800   -2.649600
N     -4.450100    0.642800   -1.292900
C     -5.392900    0.854200   -2.379500
C     -4.923600    0.273500    0.003000
C     -6.294900    0.113700    0.267900
C     -6.744200   -0.250800    1.539100
C     -5.830800   -0.461700    2.563200
C     -4.467400   -0.306000    2.316000
C     -3.997800    0.063500    1.042400
