16

C      4.549900   -1.307400   -0.403400
C      4.436600    0.197500   -0.585700
N      3.399200    0.747000    0.266900
C      2.103200    0.680800   -0.123000
N      1.663200    0.418900   -1.335500
N      0.285400    0.418900   -1.416600
C     -0.283400    0.657300   -0.251300
C     -1.728500    0.756500   -0.036300
C     -2.485400    1.541500   -0.923400
C     -3.865700    1.686900   -0.757900
C     -4.512500    1.047300    0.296900
C     -3.783400    0.248300    1.175500
C     -2.406000    0.083700    0.993500
O     -1.739500   -0.725400    1.879800
C     -1.790300   -2.083600    1.436800
S      0.840900    0.951500    1.015500
