21

C      3.886000    1.968700   -0.007600
C      2.710300    1.769900   -0.945000
O      1.812500    0.789800   -0.403000
C      2.070800   -0.508600   -0.708400
O      3.030800   -0.877700   -1.384200
C      1.076800   -1.494300   -0.094600
O      1.250300   -2.746100   -0.846000
C     -0.373200   -1.046100   -0.227000
C     -1.295900   -1.620200   -1.091400
N     -2.500700   -0.999100   -0.941800
C     -3.700900   -1.344300   -1.670900
C     -2.406600   -0.002800    0.001600
C     -3.379600    0.892400    0.478200
C     -3.006600    1.820400    1.450500
C     -1.704500    1.857000    1.929400
C     -0.742900    0.960000    1.448400
C     -1.085100    0.000100    0.468100
C      1.577100   -1.707100    1.342000
F      0.729500   -2.467400    2.077000
F      2.769200   -2.366700    1.334600
F      1.787400   -0.563700    2.030800
