24

C      4.263700    4.016600    0.657100
C      2.909300    3.365600    0.861600
O      2.990200    2.014800    0.389300
C      1.838500    1.301300    0.545200
O      0.798600    1.742100    1.016200
C      2.035700   -0.050200    0.080800
N      3.209000   -0.505100   -0.467300
C      3.105300   -1.820200   -0.836400
C      4.056100   -2.645600   -1.452400
C      3.687200   -3.957300   -1.749800
C      2.412400   -4.417100   -1.447200
C      1.477000   -3.575500   -0.828900
C      1.818200   -2.246100   -0.493500
C      1.153300   -1.125000    0.111900
N     -0.119300   -0.972500    0.644100
C     -1.049800   -1.941300    0.958100
O     -0.896700   -3.158600    0.934800
C     -2.358800   -1.335200    1.487700
N     -2.719200   -0.088500    0.769100
C     -3.807000    0.612000    1.454000
C     -4.023700    1.999800    0.839300
C     -3.884800    2.017800   -0.684700
C     -4.055900    0.622600   -1.263400
C     -3.057500   -0.366100   -0.644500
