21

C      4.778000   -0.870700    0.146700
C      3.393800   -1.436500    0.397700
O      2.435100   -0.420400    0.084100
C      1.133900   -0.792400    0.268500
O      0.809900   -1.906400    0.664500
C      0.171400    0.264400   -0.056500
C     -1.263500    0.157700   -0.007600
C     -2.122200   -0.966700    0.323400
C     -2.084900   -2.135200   -0.446900
C     -2.920200   -3.211500   -0.135200
C     -3.795500   -3.118200    0.945100
Cl    -4.825500   -4.442500    1.327600
C     -3.843800   -1.958900    1.717200
C     -3.008100   -0.882900    1.405900
C     -1.792800    1.379900   -0.368500
N     -0.763400    2.240700   -0.643800
C     -0.858000    3.572700   -1.047500
C      0.261000    4.277700   -1.273900
C      1.542700    3.624600   -1.088200
C      1.632700    2.338200   -0.699000
C      0.445400    1.573600   -0.456800
