24

Si    -5.776300   -0.023200   -0.753900
C     -6.936900    1.049300    0.265500
C     -6.269600    1.699900    1.235900
C     -4.837700    1.438900    1.288300
C     -4.373100    0.580000    0.356700
C     -3.025800    0.164800    0.207400
C     -2.514600   -1.102700   -0.051900
C     -1.084100   -1.145200   -0.152100
C     -0.167500   -2.187000   -0.394400
N      1.182500   -2.036600   -0.457000
C      1.716100   -0.808500   -0.275500
C      0.941700    0.301000   -0.028700
N      1.719600    1.416500    0.117200
C      3.050500    1.064500   -0.032800
C      4.249100    1.828700    0.023100
C      5.510900    1.214600   -0.168600
C      5.408600   -0.152200   -0.403100
C      6.443800   -1.028100   -0.626000
O      5.955600   -2.301500   -0.818600
C      4.585000   -2.240400   -0.717300
C      4.258500   -0.946900   -0.467500
C      3.012700   -0.307200   -0.272500
C     -0.577900    0.119200    0.039000
S     -1.729400    1.307400    0.327200
