21

C     -2.780800   -2.794200    1.223600
C     -1.408700   -2.626700    1.849300
O     -0.561000   -1.855900    0.984500
C     -0.652000   -0.501800    1.114400
O     -1.391200    0.062800    1.908700
C      0.199100    0.141500    0.154500
C     -0.027400    1.302000   -0.575000
C     -1.224200    2.129200   -0.580500
C     -1.087200    3.524300   -0.585000
C     -2.212900    4.350900   -0.608200
C     -3.487600    3.789500   -0.637700
C     -3.636800    2.403800   -0.651700
C     -2.510300    1.576300   -0.629600
N      1.057800    1.624900   -1.356400
C      1.941000    0.681000   -1.135000
C      3.245600    0.494300   -1.669400
C      3.999800   -0.540700   -1.255900
C      3.514500   -1.488700   -0.258500
C      4.429600   -2.597600    0.157400
C      2.273600   -1.316200    0.237200
N      1.481000   -0.249200   -0.205900
