22

C      6.827000    1.661400    1.316300
C      6.215000    0.397700    1.890900
O      4.841800    0.286500    1.488800
C      4.623200   -0.318700    0.295500
O      5.479400   -0.762400   -0.453400
C      3.166600   -0.375700   -0.004700
C      2.759600   -0.977100   -1.200900
C      1.401100   -1.054000   -1.527500
C      0.427500   -0.536800   -0.663800
N     -0.918400   -0.645200   -1.070700
C     -2.052400   -0.357700   -0.322800
O     -2.052300   -0.051300    0.861600
N     -3.186100   -0.468800   -1.116700
C     -4.532400   -0.366800   -0.708700
C     -5.506100   -0.332400   -1.718600
C     -6.862700   -0.242200   -1.396000
C     -7.246500   -0.191600   -0.063000
F     -8.546400   -0.106400    0.247400
C     -6.299200   -0.232300    0.950700
C     -4.941200   -0.322500    0.627900
C      0.837000    0.070200    0.525200
C      2.196700    0.149200    0.856100
