22

C      5.646100    1.630400   -0.629400
C      4.420300    1.665100    0.262200
O      3.495800    0.677300   -0.210700
C      2.343500    0.594700    0.513300
O      2.073900    1.290400    1.481900
C      1.442500   -0.470500   -0.071100
C      2.087800   -1.857900    0.055300
C      1.054200   -2.972600    0.225600
C     -0.235500   -2.644300   -0.517800
N     -0.859200   -1.405400   -0.004600
C     -2.016500   -1.593600    0.716700
N     -2.313700   -2.625900    1.482300
N     -3.474200   -2.318300    2.131400
N     -3.921200   -1.127300    1.772500
N     -3.073900   -0.674100    0.810500
C     -3.367800    0.510900    0.081500
C     -4.397100    1.354700    0.532500
C     -4.711100    2.522600   -0.166600
C     -4.011500    2.852700   -1.324500
C     -3.002300    2.012500   -1.789800
C     -2.682200    0.842700   -1.094200
C      0.080500   -0.437200    0.622400
