20

C      5.398100    1.359800    1.560500
C      4.051600    1.972500    1.224600
O      3.484200    1.322000    0.077800
C      2.755400    0.198500    0.331800
O      2.565000   -0.284900    1.438800
C      2.212900   -0.366600   -0.969700
C      1.739100   -1.815700   -0.780400
C      0.288600   -1.877100   -0.312100
N     -0.617100   -1.187700   -1.231600
C     -1.994800   -1.409400   -1.277900
O     -2.698100   -0.880200   -2.141600
C     -2.570500   -2.360600   -0.226800
S     -4.363000   -2.166400   -0.009900
C     -4.407200   -0.489500    0.420200
N     -3.441800    0.107300    1.038100
C     -3.790900    1.535700    1.183900
C     -5.302000    1.703800    1.197100
S     -5.853700    0.411500    0.073400
C     -0.030600   -0.221500   -2.156900
C      1.106400    0.553900   -1.504000
