18

C      5.307200   -0.487100    0.549400
C      4.245300    0.020400    1.506700
O      2.967400    0.053300    0.856200
C      2.687100    1.191700    0.151400
O      3.446500    2.149900    0.063200
C      1.386300    1.164400   -0.484300
C      0.798100    2.217800   -1.220600
N     -0.413900    1.918600   -1.690500
N     -0.614100    0.650100   -1.263300
C     -1.816100   -0.059100   -1.690200
C     -2.784800   -0.301200   -0.556300
C     -3.246600   -1.598700   -0.286000
C     -4.150900   -1.827300    0.752500
C     -4.610300   -0.762800    1.525500
C     -4.170900    0.532000    1.258200
C     -3.267400    0.763500    0.220200
C      0.439200    0.155500   -0.520100
N      0.441500   -1.092900    0.012800
