19

C      4.959400    0.581900    1.846200
C      3.860900    1.472900    1.297200
O      2.630300    0.743600    1.210300
C      2.446700    0.052600    0.063700
O      3.195200   -0.032800   -0.892900
C      1.094000   -0.670300    0.134000
N      1.025400   -1.933400    0.667100
C     -0.132600   -2.507500    0.711300
N     -0.243200   -3.764700    1.258100
C     -1.390200   -1.846800    0.155300
O     -2.408800   -2.529400    0.176200
N     -1.179500   -0.558900   -0.319200
C     -2.205000    0.288700   -0.863700
C     -1.875000    1.557400   -1.380400
C     -2.847500    2.409200   -1.916500
C     -4.178500    2.012500   -1.946900
C     -4.532900    0.767100   -1.440700
C     -3.556900   -0.084200   -0.904800
N      0.080300   -0.002900   -0.326500
