19

C      4.694900    1.747000   -0.001200
C      3.920100    1.312400   -1.231100
O      2.599000    0.897400   -0.862600
C      2.460800   -0.409600   -0.483100
O      3.388900   -1.213700   -0.440900
C      1.078800   -0.762200   -0.122900
N      0.067000    0.120000   -0.167300
N     -1.049400   -0.558700    0.230400
C     -2.293700    0.157400    0.274700
C     -2.298700    1.518800   -0.090100
C     -3.478000    2.268300   -0.067000
C     -4.672200    1.672200    0.320200
C     -4.685100    0.328800    0.683300
C     -3.505600   -0.427700    0.662000
C     -0.743500   -1.876100    0.529000
C     -1.624600   -2.890200    0.974100
N     -2.328600   -3.737200    1.339900
C      0.606600   -2.025300    0.309900
N      1.326400   -3.152400    0.477000
