22

C      6.722300   -0.055700    0.081000
C      5.918100   -0.336400    1.336400
O      4.547500   -0.586900    1.000300
C      3.742900    0.510600    0.898700
O      4.121000    1.666100    1.066600
C      2.396500    0.119600    0.558300
O      2.112900   -1.197400    0.317300
C      0.793400   -1.285000    0.003500
N      0.210100   -2.454000   -0.299900
C     -1.104900   -2.359500   -0.594600
C     -1.763600   -3.668000   -0.943000
C     -1.837300   -1.158300   -0.585600
C     -1.188300    0.045800   -0.226700
C      0.195400   -0.028800    0.050600
C      1.245600    0.869600    0.393400
N      1.153800    2.210900    0.534200
C     -1.975500    1.332100   -0.202200
C     -3.493800    1.105900   -0.090500
C     -4.223800    2.404800   -0.461700
C     -3.926100    0.698600    1.327400
O     -3.893500    0.138400   -1.068900
C     -3.317500   -1.157400   -0.894300
