28

Si     5.379400   -1.036500   -1.041200
C      6.829100   -0.643800    0.099600
C      6.422700    0.029000    1.191700
C      4.994100    0.295700    1.260100
C      4.275700   -0.150600    0.209200
C      2.839300   -0.063500    0.045900
C      1.920200   -0.725100    0.881000
C      0.508200   -0.613500    0.693900
S     -0.713000   -1.272100    1.715900
C     -2.026500   -0.663900    0.744100
C     -1.487300   -0.068000   -0.396600
C     -2.432500    0.259500   -1.437900
C     -2.138800    0.541300   -2.741800
S     -3.580900    0.877400   -3.612600
C     -4.562700    0.511200   -2.246800
C     -3.817900    0.140200   -1.144400
C     -4.408100   -0.319900    0.058000
C     -5.792500   -0.415200    0.350900
C     -6.219600   -0.946900    1.566200
C     -5.286100   -1.394800    2.496400
C     -3.917100   -1.308800    2.223300
C     -3.446700   -0.764900    1.006600
C     -0.091800    0.092900   -0.342500
C      0.817600    0.895300   -1.123300
C      0.590800    1.918000   -1.999000
N      1.836100    2.352000   -2.402100
C      2.819600    1.659400   -1.726000
C      2.203400    0.752900   -0.888600
