15

C      4.171000   -1.351300   -1.170500
C      3.174100   -0.319800   -0.679400
O      2.480200   -0.869300    0.447000
C      1.520600   -0.048700    0.969800
O      1.288100    1.086500    0.573400
C      0.843200   -0.752100    2.129200
S     -0.661400    0.110900    2.679300
C     -1.572900    0.079600    1.185300
N     -1.417200   -0.898200    0.359100
C     -2.145800   -0.860100   -0.808700
O     -2.114800   -1.757700   -1.644500
C     -2.999100    0.330100   -1.080600
C     -3.113300    1.293200   -0.153800
N     -3.888200    2.409800   -0.344900
N     -2.420400    1.127200    1.008200
