23

C      5.849600   -0.559700   -0.772700
C      5.091700   -0.255300    0.505700
O      3.719100    0.044800    0.207700
C      2.866700   -1.021400    0.124000
O      3.262400   -2.171700    0.283400
N      1.563000   -0.662300   -0.158200
C      0.495200   -1.599800   -0.223400
O      0.539100   -2.816200   -0.114900
N     -0.683800   -0.859900   -0.476800
C     -1.979000   -1.470000   -0.655900
C     -3.089200   -0.919600    0.212900
C     -4.242100   -0.404000   -0.412600
C     -5.302800    0.108300    0.337100
C     -5.237500    0.104500    1.726200
C     -4.114900   -0.420000    2.364400
C     -3.049600   -0.935400    1.616700
Cl    -1.721200   -1.598100    2.497900
C     -0.350000    0.489400   -0.626800
C     -1.155100    1.570100   -0.935100
C     -0.553000    2.826800   -1.017300
C      0.825400    2.974900   -0.798500
C      1.628300    1.868400   -0.497000
C      1.027200    0.623200   -0.414400
