21

C      6.680100    0.306800    0.337300
C      5.798400   -0.160800   -0.805400
O      4.458100   -0.376200   -0.341000
C      3.645500    0.715100   -0.335400
O      3.994500    1.832600   -0.695600
N      2.378100    0.415500    0.119800
C      1.996500   -0.924300    0.570300
C      0.669800   -0.943900    1.337900
N     -0.411800   -0.275600    0.607000
C     -1.718500   -0.690900    0.847100
O     -1.969200   -1.532700    1.705200
N     -2.656700   -0.089400    0.042700
C     -4.066100   -0.204400    0.104800
C     -4.739800   -0.809500    1.169400
C     -6.137500   -0.882200    1.178500
C     -6.878900   -0.346800    0.127600
C     -6.224300    0.267800   -0.937200
C     -4.828600    0.340700   -0.946100
Cl    -4.062100    1.122100   -2.289800
C     -0.037000    0.906900   -0.183900
C      1.354200    1.454000    0.160900
