22

C     -6.936800    0.537300   -0.931200
C     -6.579500   -0.128600    0.384400
O     -5.376900    0.444700    0.920000
C     -4.210400   -0.101100    0.482700
O     -4.138200   -1.017900   -0.320500
N     -3.183200    0.559300    1.095400
C     -1.801100    0.348900    0.956900
C     -0.951200    1.174200    1.702800
C      0.436400    1.027600    1.617400
C      0.992400    0.057400    0.774900
C      2.468200   -0.041100    0.732600
O      3.163200    0.104200    1.728100
O      2.876500   -0.199400   -0.576000
C      4.262000   -0.298000   -0.707200
C      4.885500   -1.530500   -0.519800
C      6.264000   -1.629500   -0.703000
C      7.000500   -0.505000   -1.083900
C      6.360600    0.720500   -1.287000
C      4.982300    0.826200   -1.105200
C      0.145300   -0.782100    0.046400
O      0.661400   -1.782100   -0.730900
C     -1.244300   -0.632700    0.131100
