16

C     -5.865700    0.976100   -0.541600
C     -5.276800    0.505400    0.775100
O     -4.060700   -0.220600    0.543600
C     -2.930200    0.534700    0.463300
O     -2.900100    1.752800    0.567000
N     -1.861800   -0.301900    0.247500
N     -0.592300    0.179800    0.167600
C      0.390400   -0.647000   -0.060600
C      0.208400   -2.132500   -0.291600
C      1.757100   -0.045300   -0.083700
C      2.901000   -0.739000   -0.016000
C      4.179000   -0.111500   -0.028400
C      4.556500    1.226600   -0.101800
C      5.970700    1.287700   -0.077200
C      6.398000   -0.010900    0.009700
O      5.339500   -0.854500    0.039300
