23

C     -5.020900   -1.954300    3.342600
C     -3.519700   -2.157300    3.428000
O     -3.004300   -2.584700    2.160900
C     -2.681700   -1.590200    1.290400
O     -2.811400   -0.393000    1.503700
O     -2.195900   -2.181800    0.136500
C     -1.815800   -1.251000   -0.834400
C     -2.758200   -0.830800   -1.772800
C     -2.393600    0.071000   -2.774900
C     -1.064300    0.495300   -2.783900
O     -0.534400    1.370300   -3.676700
C      0.778800    1.528200   -3.356800
C      1.544800    2.458100   -4.216300
C      1.115200    0.749200   -2.258800
C      2.441600    0.688200   -1.671000
O      3.373000    1.401400   -2.028100
O      2.540400   -0.248000   -0.686500
C      3.819200   -0.337900   -0.031800
C      3.978600    0.761700    1.017100
O      3.042700    0.532200    2.075700
C      3.100700    1.558200    3.057800
C     -0.093900    0.077700   -1.878100
C     -0.479100   -0.830900   -0.871100
