18

C      5.309600    1.201900   -0.427200
C      3.805600    0.995600   -0.407300
O      3.526600   -0.257400   -1.038400
C      2.380400   -0.889900   -0.562900
C      2.432400   -2.174600   -0.210200
Cl     3.850500   -3.139200   -0.250200
C      1.205100   -2.797900    0.271700
N      0.061100   -2.216100    0.387200
N     -0.035200   -0.887200    0.008900
C     -1.365500   -0.345400    0.179300
C     -1.697700    0.988200   -0.096400
C     -3.001900    1.474900    0.084600
C     -4.021200    0.638700    0.540500
C     -5.404800    1.169900    0.763700
C     -3.709800   -0.686500    0.838700
C     -2.406300   -1.167500    0.656200
C      1.057300   -0.164400   -0.508600
O      1.026300    0.996100   -0.918100
