23

C     -3.178800   -1.959000   -3.722500
C     -2.049100   -1.447100   -2.846500
O     -2.632700   -0.784400   -1.726500
C     -1.791800   -0.264500   -0.778100
C     -0.396600   -0.293800   -0.851100
C      0.383200    0.234700    0.189900
C      1.866400    0.177000    0.056400
O      2.347800    0.268200   -1.066400
N      2.555000   -0.013300    1.237000
C      3.955700   -0.074500    1.413800
C      4.891100    0.130000    0.399700
C      6.261400    0.054000    0.679800
C      6.707100   -0.225000    1.972700
C      5.782200   -0.427700    2.992900
C      4.422600   -0.350600    2.706100
F      3.538000   -0.544800    3.698300
C     -0.231000    0.818400    1.302900
C     -1.623700    0.853000    1.380000
Br    -2.413200    1.633400    2.920100
C     -2.403700    0.330700    0.339800
O     -3.773600    0.337700    0.459500
C     -4.348100    1.387400   -0.327800
C     -5.822300    1.478500    0.022500
