24

C     -4.114900   -3.636800    0.673100
C     -4.503800   -2.266800    0.147100
O     -3.313300   -1.498700    0.000200
C     -3.425000   -0.206900   -0.452800
C     -4.633700    0.403600   -0.806000
C     -4.636600    1.727000   -1.255200
C     -5.917200    2.363500   -1.624300
O     -5.979800    3.521900   -2.016400
C     -3.445900    2.446400   -1.352900
C     -2.237500    1.841000   -1.002400
C     -2.214900    0.514800   -0.558200
O     -1.083100   -0.161800   -0.180900
C      0.199200    0.401200   -0.457300
C      0.688800    1.203500    0.746900
C      2.029100    1.893100    0.501300
N      3.126400    0.960700    0.346500
C      3.604100    0.518700   -0.849200
O      3.203400    0.817600   -1.961300
N      4.631900   -0.362500   -0.612200
C      4.855900   -0.583500    0.797800
C      6.254400   -0.149300    1.212000
C      4.550100   -2.024000    1.185900
C      3.795600    0.365100    1.381800
O      3.588100    0.542700    2.574700
