23

C     -5.419300   -1.782500    0.772200
C     -5.611000   -0.482000    1.533800
O     -4.370100    0.004800    2.041000
C     -3.546500    0.715700    1.214700
C     -2.305200    1.033800    1.776200
C     -1.353100    1.746400    1.045900
C     -1.642500    2.137400   -0.258700
C     -0.669600    2.918100   -1.041500
N      0.586400    2.661100   -1.269500
N      1.089100    1.435900   -0.888200
C      0.959200    0.328900   -1.714100
S     -0.142600    0.129700   -2.967700
N      1.858300   -0.696700   -1.536500
C      2.942400   -0.805800   -0.639500
C      4.205700   -1.144200   -1.177800
C      4.412300   -1.372800   -2.652600
C      5.318000   -1.237800   -0.326900
C      5.185600   -1.016700    1.039000
C      3.934000   -0.734600    1.574800
C      2.794500   -0.658100    0.754000
C      1.471900   -0.492500    1.449000
C     -2.890000    1.860300   -0.818000
C     -3.837300    1.138300   -0.083800
