19

C      5.645200    0.757300   -0.032900
C      5.101000   -0.312300   -0.963800
O      4.173700   -1.153900   -0.281100
C      2.852300   -0.812900   -0.273800
C      2.295600    0.365000   -0.758800
C      0.910600    0.581100   -0.677600
C      0.050700   -0.371400   -0.108700
N     -1.347900   -0.134300   -0.036600
C     -1.957900    1.091600   -0.541200
C     -3.417400    0.897200   -0.255500
N     -4.402200    1.770800   -0.542300
C     -5.645700    1.362100   -0.182800
C     -5.928100    0.140600    0.437600
C     -4.879100   -0.734600    0.716600
C     -3.613100   -0.325100    0.353800
C     -2.317600   -0.989900    0.499600
O     -2.223200   -2.090200    1.011700
C      0.626800   -1.547700    0.379000
C      2.009000   -1.763100    0.298500
