18

C      5.935400    0.116700    1.455200
C      5.457000   -1.247900    0.986300
O      4.144800   -1.522700    1.475700
C      3.066100   -1.126900    0.738100
C      3.091100   -0.363200   -0.425800
C      1.895200   -0.025800   -1.074100
C      0.657900   -0.443800   -0.569100
N     -0.494000   -0.060500   -1.286300
C     -1.815000   -0.328900   -0.966900
O     -2.222400   -0.965500   -0.002100
C     -2.768600    0.232200   -2.011600
C     -4.216000    0.203300   -1.534300
C     -4.446100    1.221600   -0.444000
O     -3.737000    2.198700   -0.242700
O     -5.586900    0.921900    0.236100
C     -5.896300    1.833500    1.290300
C      0.637100   -1.204900    0.597800
C      1.832800   -1.540300    1.244300
