22

C      6.676700    0.170100    0.191200
C      5.442300   -0.657700   -0.118000
O      4.294700    0.149300    0.143100
C      3.068400   -0.416100   -0.074700
C      2.834100   -1.712800   -0.529900
C      1.525700   -2.163900   -0.709300
C      0.448500   -1.320400   -0.434200
C      0.667500   -0.013600    0.024200
C     -0.518300    0.838900    0.300600
N     -1.748200    0.418700    0.133300
N     -2.556600    1.461200    0.482200
C     -3.910700    1.661500    0.528600
C     -4.921100    0.713300    0.181300
C     -4.799800   -0.593000   -0.271300
C     -6.108000   -1.099300   -0.469900
C     -6.961000   -0.080300   -0.129900
O     -6.260500    1.011300    0.262000
N     -4.132400    2.900900    0.956100
N     -2.905600    3.518700    1.192200
C     -2.008100    2.625000    0.896600
S     -0.307600    2.515300    0.887600
C      1.985200    0.427900    0.200500
