21

C     -1.453300   -2.889200   -1.533400
C     -2.231200   -1.642500   -1.151200
O     -1.356800   -0.794700   -0.408100
C     -1.920900    0.406100   -0.026400
N     -3.236700    0.604100   -0.308100
C     -3.809200    1.758900    0.099700
C     -5.259900    1.959000   -0.220400
C     -3.105400    2.733700    0.792600
C     -1.758200    2.514000    1.072500
C     -1.130600    1.330200    0.657800
C      0.280800    1.114400    0.947500
N      0.929100    1.748900    1.941300
O      2.235200    1.267500    1.849800
C      2.258000    0.397100    0.798900
C      3.528800   -0.250700    0.498000
C      3.623500   -1.173500   -0.541200
C      4.854400   -1.771800   -0.798600
C      5.951300   -1.433600   -0.015300
C      5.772500   -0.506900    0.998300
N      4.591900    0.090200    1.272000
N      1.088800    0.281000    0.206500
