23

C     -7.460300    0.112800   -2.110500
C     -6.318600    0.929700   -1.531700
O     -6.213500    0.724500   -0.125200
C     -5.451100   -0.421700    0.249900
C     -3.967300   -0.076500    0.331600
C     -3.146000   -1.286900    0.761600
N     -1.720700   -0.978000    0.837100
C     -1.031200   -0.464300    1.920900
S     -1.759500   -0.125100    3.397200
N      0.338300   -0.272000    1.660600
C      1.047900   -1.002400    0.597700
C      2.492400   -1.316900    0.968900
C      3.293400   -0.049600    1.300000
N      4.059100    0.422200    0.149300
C      5.239800   -0.192000   -0.242200
O      5.716200   -1.122900    0.403000
C      5.832600    0.337000   -1.458300
C      5.541900    1.426100   -2.264900
C      6.487700    1.424100   -3.320600
C      7.301100    0.340200   -3.100200
O      6.916600   -0.321000   -1.981200
C      2.407300    1.078400    1.838400
C      1.185200    0.529200    2.561700
