32

Si     6.280900    1.315600    0.167700
C      7.670900    0.131600   -0.293300
C      7.188600   -0.996800   -0.845000
C      5.739900   -1.059900   -0.964300
C      5.076000    0.024300   -0.511100
C      3.631800    0.219100   -0.501100
C      3.031800    1.241500   -1.232400
C      1.636600    1.418700   -1.217200
C      0.754000    0.603700   -0.469100
C      1.401300   -0.466100    0.213100
C      2.809500   -0.647900    0.213400
C      0.477200   -1.282000    0.894000
C      0.792700   -2.316900    1.744900
N     -0.383600   -2.769800    2.287800
C     -1.435200   -2.033200    1.795500
C     -0.947800   -1.163400    0.843900
C     -1.698400   -0.199500    0.113500
C     -3.199800   -0.122600   -0.049100
C     -4.211800   -1.139200    0.063100
C     -3.953800   -2.492900    0.059500
S     -5.375700   -3.444300    0.214200
C     -6.384700   -2.063500    0.121600
C     -5.642800   -0.914800   -0.014500
C     -6.262800    0.307300   -0.238700
C     -5.317600    1.310500   -0.489300
C     -3.880000    1.096900   -0.432200
C     -2.925200    2.077100   -0.759900
C     -3.198200    3.367100   -1.145900
O     -2.039500    4.049400   -1.340700
C     -1.017000    3.185900   -1.085200
C     -1.495800    1.932500   -0.775100
C     -0.736900    0.782200   -0.404000
