20

C      5.717200    0.818800   -0.056200
C      4.227100    0.937300   -0.308300
O      3.737700   -0.340600   -0.711700
C      2.330900   -0.347000   -0.962900
C      1.540400   -0.590600    0.319400
N      0.109500   -0.480700    0.115800
C     -0.666600    0.654300    0.214300
S     -0.005900    2.218300    0.565200
C     -1.510000    3.224800    0.738100
C     -2.178100    3.008400    2.085300
N     -1.939100    0.402800   -0.011900
C     -1.982200   -0.930600   -0.267500
C     -0.743800   -1.504100   -0.207700
C     -0.534000   -2.887400   -0.460100
O      0.553600   -3.450400   -0.451600
N     -1.704900   -3.556700   -0.736400
C     -2.979000   -3.024700   -0.813400
O     -3.918200   -3.768900   -1.094600
N     -3.111700   -1.662400   -0.566400
C     -4.411200   -1.022100   -0.627400
