21

C     -3.300100    4.721700    0.037200
C     -2.621100    3.366000    0.125700
S     -0.878600    3.514200   -0.386400
C     -0.327100    1.824700   -0.182800
C      0.992300    1.528400   -0.451400
C      1.397400    0.220000   -0.293700
N      2.695400   -0.169400   -0.524400
C      3.068800   -1.572900   -0.392800
C      4.545900   -1.573400   -0.773800
C      4.609800   -0.509500   -1.858000
C      3.632500    0.560800   -1.370100
N      0.523700   -0.710600    0.127200
C     -0.747100   -0.340700    0.368100
C     -1.692400   -1.382900    0.823100
C     -1.277000   -2.717100    1.019300
C     -2.168700   -3.705200    1.449400
C     -3.493600   -3.372300    1.690400
F     -4.349100   -4.316900    2.102000
C     -3.942900   -2.072200    1.510000
C     -3.048100   -1.086800    1.079800
N     -1.214700    0.907200    0.222400
