20

C     -2.347100   -1.004600   -1.835500
C     -2.772900   -1.988400   -0.760300
S     -1.773800   -1.817000    0.759000
C     -2.531000   -0.350700    1.461700
C     -3.704100   -0.563200    2.209000
C     -4.395300    0.503100    2.786400
C     -3.924700    1.800300    2.626700
C     -2.757300    2.027900    1.898100
C     -2.039700    0.962300    1.319900
C     -0.801000    1.351100    0.571000
O     -0.785900    2.446500    0.018100
N      0.237200    0.443200    0.603400
C      1.508600    0.556000    0.004700
C      1.946300    1.678700   -0.695500
C      3.225400    1.704200   -1.258100
C      4.079800    0.608100   -1.125900
C      3.656300   -0.520600   -0.427900
O      4.385500   -1.660100   -0.222000
C      5.697500   -1.690300   -0.769700
C      2.374000   -0.538600    0.132800
