22

C      4.908300   -0.998000   -0.632500
C      4.401900   -1.830000    0.533700
S      4.114200   -0.816000    2.019200
C      2.652400    0.070300    1.537800
N      2.471000    1.296300    2.079600
N      1.358900    2.025700    1.755100
C      0.455400    1.489700    0.910100
C      0.699900    0.226600    0.400300
N      1.797200   -0.506200    0.680400
O     -0.094100   -0.287000   -0.588200
C     -1.390000   -0.693800   -0.135400
C     -2.193100   -1.064600   -1.395200
C     -1.664300   -2.439200   -1.805200
C     -1.069700   -3.059300   -0.542100
C     -1.324700   -2.053400    0.577200
N     -2.147300    0.266400    0.673700
C     -1.987000    1.641700    0.443600
C     -3.116700    2.419900    0.144500
C     -3.010300    3.798000   -0.048300
C     -1.774100    4.421900    0.070400
C     -0.643800    3.666100    0.380400
C     -0.728800    2.272500    0.563900
