22

C     -6.419600   -0.528000   -0.100200
C     -5.575200   -1.565600   -0.818400
S     -4.799000   -0.904400   -2.330400
C     -3.615700    0.291300   -1.624900
C     -2.665000   -0.305300   -0.645700
N     -1.968500   -1.417300   -0.802200
N     -1.222200   -1.624700    0.329300
C     -1.468800   -0.633900    1.150900
S     -0.749900   -0.430000    2.708100
C      0.999900   -0.467000    2.206200
C      1.379300    0.753400    1.377000
O      0.675600    1.762400    1.295300
C      2.691400    0.738900    0.655300
C      3.013000    1.829600   -0.162000
C      4.225700    1.860800   -0.855300
C      5.132600    0.805900   -0.749700
O      6.278200    0.959800   -1.479200
C      7.146100   -0.163800   -1.556800
C      4.821200   -0.279100    0.069300
C      3.608400   -0.313300    0.771600
N     -2.344900    0.242800    0.578900
C     -2.813800    1.497100    1.109800
