28

Si     5.944400   -0.684700   -0.546300
C      6.447300    0.066100    1.184700
C      5.369200    0.467000    1.895800
C      4.186500    0.219500    1.164800
N      2.899800    0.484700    1.540300
C      2.034500    0.082300    0.520000
C      2.874100   -0.430300   -0.474900
C      4.183400   -0.350300   -0.088700
C      2.257400   -0.917700   -1.650700
C      2.776200   -1.466300   -2.779700
O      1.724700   -1.765400   -3.611000
C      0.570000   -1.388400   -2.967500
C      0.858700   -0.852400   -1.732700
C     -0.052100   -0.353000   -0.773900
C     -1.461700   -0.300100   -0.882300
C     -2.242800    0.228900    0.158900
C     -1.582800    0.700700    1.309100
C     -0.186700    0.657800    1.434200
C      0.601900    0.131200    0.399500
C     -3.705900    0.263900    0.050900
C     -4.476200   -0.879300   -0.285700
C     -5.886800   -0.881000   -0.403000
C     -6.670700    0.263500   -0.197000
C     -5.971200    1.445400    0.141200
N     -6.536400    2.639700    0.375700
S     -5.296200    3.687300    0.714700
N     -3.989900    2.675200    0.592300
C     -4.462400    1.456500    0.270600
