16

Cl     5.121400    1.119100    0.254900
C      3.471500    0.647500    0.137600
C      2.590100    1.395800   -0.638300
C      1.249500    1.011000   -0.734500
C      3.023800   -0.480800    0.820700
C      1.683100   -0.865600    0.724800
C      0.782100   -0.124900   -0.056800
C     -0.631600   -0.532300   -0.167600
C     -0.928900   -1.760900   -0.632000
C     -2.375900   -2.089600   -0.726600
N     -3.365200   -1.314400   -0.411900
C     -3.026400   -0.074700    0.050400
N     -3.812000    0.906400    0.437300
C     -2.943200    1.888500    0.791700
N     -1.650200    1.603300    0.653000
N     -1.686300    0.330600    0.176200
