20

Cl    -6.761900    0.847400   -1.681500
C     -5.181200    0.391100   -1.181200
C     -4.122100    1.280600   -1.331700
C     -2.837800    0.905800   -0.923500
C     -4.966300   -0.868000   -0.626700
C     -3.680300   -1.242300   -0.218400
C     -2.597900   -0.359700   -0.361400
C     -1.247600   -0.737200    0.061000
N     -0.195000    0.087800   -0.064500
N      0.834700   -0.641000    0.436700
C      2.159700   -0.131500    0.493700
C      3.194500   -0.919000    1.019800
C      4.498000   -0.415100    1.074800
C      4.775300    0.873900    0.606300
C      6.112600    1.388100    0.663800
N      7.194900    1.804500    0.710300
C      3.743100    1.659700    0.081400
C      2.437800    1.160700    0.024100
N      0.522000   -1.884800    0.879800
C     -0.788800   -1.940100    0.641100
