20

Cl     7.079800    2.631800    0.373900
C      5.626900    1.712400    0.340800
C      4.406900    2.350100    0.139600
C      3.227300    1.598900    0.113400
C      5.676300    0.331700    0.515500
C      4.494900   -0.419400    0.489100
C      3.253500    0.204600    0.287500
C      2.009800   -0.567700    0.257300
N      0.809900    0.004600    0.066300
N     -0.049300   -1.047300    0.109200
C     -1.450000   -0.881800   -0.052100
C     -1.989600    0.394600   -0.263300
C     -3.371400    0.558100   -0.422400
C     -4.221000   -0.548000   -0.371800
O     -5.581300   -0.524700   -0.511500
C     -6.184200    0.744800   -0.728200
C     -3.678600   -1.818900   -0.161000
C     -2.301000   -1.992300   -0.001100
N      0.515200   -2.265000    0.315700
C      1.809000   -1.957000    0.407900
