16

Cl    -4.661400   -1.647100   -0.961700
C     -3.272000   -0.712600   -0.550100
C     -2.011600   -1.319100   -0.586300
C     -0.931400   -0.533100   -0.249600
C     -1.105300    0.855400    0.122900
C      0.205300    1.400800    0.416400
N      0.848500    2.480300    0.789200
C      2.203200    2.071400    0.818700
C      2.345800    0.740200    0.459000
N      1.067700    0.384600    0.222300
C      0.518700   -0.812200   -0.173300
C      1.381600   -1.822800   -0.365900
C      2.818600   -1.532800   -0.130800
C      3.280800   -0.313200    0.262100
C     -2.348400    1.446000    0.156500
C     -3.442600    0.643000   -0.186400
