17

Cl     7.430100    0.383700   -0.318900
C      5.715000    0.386600   -0.178100
C      5.094900   -0.456000    0.741800
C      3.702800   -0.454100    0.856000
C      2.923800    0.394800    0.054500
C      1.416900    0.386600    0.167700
S      0.676500   -0.829600   -0.958600
C     -1.012800   -0.596000   -0.595700
C     -2.056800   -1.288600   -1.186200
N     -3.144600   -0.767600   -0.596400
C     -2.767500    0.177900    0.304400
N     -1.468700    0.319900    0.336800
C     -3.935400    0.765200    0.987300
C     -5.049100   -0.251300    0.624500
C     -4.575200   -0.965100   -0.656400
C      3.563700    1.231700   -0.872900
C      4.955800    1.229400   -0.986700
