20

Cl     6.252300   -1.163400    1.847200
C      5.264000   -0.748900    0.499100
C      5.822100   -0.713100   -0.777200
C      5.021900   -0.378200   -1.866800
C      3.672000   -0.082000   -1.670300
C      3.110300   -0.116600   -0.389600
O      1.779600    0.195400   -0.346400
C      1.151000    0.196100    0.935300
C     -0.269100    0.566000    0.723200
N     -1.354900   -0.172700    0.787700
C     -2.353800    0.738100    0.511900
C     -3.759800    0.357200    0.462200
C     -4.137500   -0.970700    0.678900
C     -5.482500   -1.293500    0.624100
N     -6.458700   -0.396600    0.372600
C     -6.074000    0.880000    0.164800
C     -4.755700    1.301600    0.198500
N     -1.906900    1.988500    0.307800
O     -0.525500    1.875600    0.444500
C      3.913000   -0.453000    0.700600
