21

C      3.733700    1.507900    1.471900
N      3.513000    1.479800    0.033100
C      4.319800    2.411500   -0.733200
C      3.167900    0.288700   -0.603100
O      3.678900   -0.051700   -1.669500
N      2.213600   -0.493400    0.051300
C      0.978500    0.146100    0.501500
C      0.286500   -0.694500    1.570100
C      0.027500   -2.129000    1.086000
C     -1.110700   -2.180700    0.067000
O     -0.952500   -2.520700   -1.100300
N     -2.334700   -1.815700    0.582000
C     -3.480500   -1.596600   -0.272400
C     -3.633600   -0.126400   -0.567200
C     -4.511400    0.669600    0.181900
C     -4.620700    2.037100   -0.077200
C     -3.849800    2.622400   -1.080400
C     -2.968000    1.842400   -1.825800
C     -2.858600    0.475400   -1.569800
C      1.320300   -2.746300    0.533600
C      2.027500   -1.841900   -0.474900
