23

Si     5.483400   -1.287600    1.032500
C      6.286200    0.319200    0.245600
C      5.354500    1.157400   -0.263600
C      4.061300    0.620600   -0.075600
N      2.876600    1.166700   -0.450700
C      1.878700    0.284200   -0.058600
C      2.468400   -0.807100    0.558600
S      1.316500   -1.992000    1.096400
C      0.001000   -1.032600    0.494900
C     -1.388000   -1.321700    0.545400
C     -2.343300   -0.425300    0.016700
C     -3.767600   -0.696700    0.089400
C     -4.501700   -1.763700   -0.396900
C     -5.855100   -1.566900   -0.030500
C     -5.916300   -0.396800    0.690000
N     -4.647900    0.114500    0.771400
C     -1.800100    0.734500   -0.567700
C     -2.554500    1.706900   -1.193200
S     -1.591500    3.001000   -1.801100
C     -0.130000    2.262000   -1.267800
C     -0.418200    1.079400   -0.651100
C      0.485100    0.127100   -0.077100
C      3.847900   -0.584500    0.543200
