20

C      5.910000    0.460200   -0.080400
N      4.877200   -0.485000    0.340400
C      5.248400   -1.897300    0.269300
C      3.530600   -0.129200    0.193300
C      2.491400   -1.071400    0.309700
C      1.138300   -0.721800    0.180100
C      3.129100    1.200500   -0.035000
C      1.781300    1.569300   -0.167500
C      0.779500    0.604300   -0.062600
N     -0.585600    0.967200   -0.195200
N     -0.972400    2.248300   -0.430900
C     -2.299500    2.129400   -0.480300
C     -2.696100    0.789600   -0.278000
C     -4.040300    0.209600   -0.252000
C     -4.216100   -1.164800   -0.024100
C     -5.493600   -1.730800    0.003300
C     -6.614500   -0.929900   -0.197000
C     -6.459100    0.435300   -0.424500
C     -5.180700    1.002700   -0.452100
N     -1.586800    0.054000   -0.097400
