19

C     -4.627200    1.500400   -0.125200
N     -3.978300    0.190700   -0.150500
C     -4.769800   -0.915900    0.384200
C     -2.580800    0.121400   -0.087900
C     -1.764800    1.239800   -0.321700
C     -0.354400    1.189100   -0.278300
C      0.421600    2.454600   -0.543300
C      0.297600   -0.030200   -0.001100
C      1.767800   -0.106600    0.048600
C      2.454600    0.107300    1.255200
C      3.849400    0.036000    1.307600
C      4.568900   -0.251400    0.145800
C      6.042300   -0.325600    0.206500
O      6.725400   -0.573800   -0.779100
C      3.903500   -0.467000   -1.062900
C      2.509300   -0.394300   -1.108600
C     -0.494000   -1.176100    0.220500
C      0.127900   -2.519800    0.505800
C     -1.901800   -1.080600    0.167700
