19

C      4.677200   -1.425500    0.372900
N      4.084300   -0.096700    0.230500
C      4.886800    0.876500   -0.507800
C      2.689100    0.024500    0.225100
C      1.848200   -0.988600    0.723000
C      0.438900   -0.886000    0.740400
C     -0.369500   -2.026500    1.301100
C     -0.176600    0.281400    0.257200
C     -1.637600    0.465800    0.254500
C     -2.259600    0.985200    1.405600
C     -3.639800    1.183900    1.452700
C     -4.418200    0.867000    0.341200
C     -5.880200    1.072900    0.375100
O     -6.455200    1.518200    1.360300
C     -3.824900    0.353400   -0.815300
C     -2.434800    0.147200   -0.869800
C     -1.823500   -0.402400   -2.132400
C      0.644200    1.308700   -0.221800
C      2.040200    1.180600   -0.232600
