22

C     -4.289300    1.945100   -2.728400
N     -3.829600    0.772300   -1.986300
C     -4.857700    0.067700   -1.222500
C     -2.500800    0.735000   -1.538000
C     -1.503300    1.571900   -2.098800
C     -0.160500    1.550100   -1.685800
C      0.211400    0.666400   -0.694900
C      1.497200    0.421500   -0.079800
C      2.729100    1.013100   -0.305500
C      3.831300    0.578900    0.443000
C      3.696400   -0.441000    1.409700
C      4.848400   -0.923700    2.221000
C      6.151700   -0.331100    2.008600
C      7.242400    0.147200    1.848100
O      4.725700   -1.805400    3.060900
C      2.444000   -1.035200    1.631700
C      1.357100   -0.598400    0.885000
C     -0.095700   -1.080400    0.936500
C     -0.709900   -0.826100    2.317700
C     -0.196700   -2.561000    0.552700
C     -0.745600   -0.190700   -0.126300
C     -2.076800   -0.165000   -0.540700
