20

C     -5.191200    1.557200   -0.004500
N     -4.290800    0.466200   -0.373600
C     -4.859000   -0.877400   -0.283000
C     -2.910600    0.635300   -0.185200
C     -2.334900    1.919000   -0.009500
C     -0.956200    2.125300    0.166200
C     -0.117900    1.030600    0.157300
C      1.317300    0.937100    0.308200
C      2.265700    1.922400    0.519400
C      3.610200    1.545200    0.632000
C      4.007100    0.195600    0.524600
C      5.410100   -0.217000    0.671300
C      6.458900    0.490700    0.232000
C      3.034800   -0.795400    0.325800
C      1.701900   -0.416600    0.213800
C      0.471500   -1.298800   -0.014500
C      0.562800   -2.030800   -1.358200
C      0.283900   -2.289100    1.140500
C     -0.649400   -0.256100   -0.031300
C     -2.018500   -0.454900   -0.205600
