20

C     -6.060600    0.400200   -0.253400
N     -4.789400    0.903000    0.266500
C     -4.674000    2.358700    0.346400
C     -3.632500    0.137200    0.066000
C     -3.693100   -1.242500   -0.180900
C     -2.540100   -2.012400   -0.364300
C     -1.276600   -1.416300   -0.294800
C     -0.098700   -2.149400   -0.473600
C      1.142300   -1.509100   -0.390900
C      2.346800   -2.198200   -0.566200
C      3.566300   -1.520000   -0.473800
C      3.632100   -0.146300   -0.196300
N      4.855300    0.534100   -0.121400
C      4.870500    1.921700    0.340200
C      6.068200   -0.234600    0.156300
C      2.393100    0.508900   -0.044300
C      1.158200   -0.132900   -0.127500
N      0.026500    0.576600    0.045500
C     -1.166300   -0.043900   -0.034800
C     -2.338100    0.690200    0.144100
