18

C     -4.636700    0.188600   -1.217400
N     -3.751100    0.355700   -0.065600
C     -4.388200    0.197900    1.241700
C     -2.396700    0.023800   -0.195400
C     -1.533900   -0.028900    0.914100
C     -0.169600   -0.337900    0.793000
C      0.393300   -0.588400   -0.458000
C     -0.440700   -0.550500   -1.574300
C     -1.802700   -0.238300   -1.442200
C      1.807300   -0.913100   -0.619800
N      2.283200   -1.938100   -1.308100
N      3.655800   -1.933000   -1.221400
C      4.005600   -0.887300   -0.508600
N      2.872700   -0.184500   -0.118700
C      2.933700    1.010500    0.604300
C      4.132300    1.497200    0.970100
C      5.334500    0.764600    0.602300
C      5.271500   -0.377700   -0.109400
