18

C     -4.632400    1.612600    0.044400
N     -4.029500    0.313100    0.336300
C     -4.828500   -0.851100   -0.042700
C     -2.633500    0.201500    0.349700
C     -1.982200   -1.044500    0.338200
C     -0.583800   -1.162200    0.368100
C      0.228900   -0.028800    0.420100
C      1.691400   -0.146600    0.458200
C      2.475700   -0.169200   -0.717400
C      1.847900   -0.072900   -2.083100
C      3.872800   -0.284100   -0.614500
C      4.487000   -0.375500    0.637500
C      5.955400   -0.495900    0.738900
O      6.679500   -0.520200   -0.248400
C      3.721700   -0.353900    1.801900
C      2.333300   -0.240100    1.707900
C     -0.394200    1.219500    0.452400
C     -1.793500    1.326600    0.422100
