19

C      4.945300    0.606300    0.554600
N      4.090500    0.443100   -0.619800
C      4.722300   -0.185200   -1.778600
C      2.709000    0.303100   -0.440300
C      2.074800    0.630800    0.771000
C      0.688200    0.508500    0.950800
C     -0.131400    0.059200   -0.086100
C     -1.587100   -0.070300    0.096900
C     -2.147700   -1.288100    0.563600
C     -1.280000   -2.479300    0.884800
C     -3.537900   -1.399900    0.734400
C     -4.370500   -0.318800    0.447200
C     -5.829000   -0.458800    0.634100
O     -6.610000    0.454600    0.398800
C     -3.833700    0.883200   -0.011900
C     -2.447700    1.020400   -0.190900
C     -1.910600    2.338400   -0.689300
C      0.472700   -0.256600   -1.304400
C      1.860300   -0.130800   -1.473900
