20

C      4.611200   -0.229000   -0.041000
N      3.437000   -0.716200    0.689400
C      3.613400   -2.030100    1.309900
C      2.263500   -0.608300   -0.108500
C      1.995400   -1.539700   -1.122400
C      0.864700   -1.416000   -1.915500
C     -0.016800   -0.357100   -1.707500
C      0.195600    0.616700   -0.699800
C     -0.671900    1.717400   -0.432400
S     -2.184600    1.972600   -1.339900
O     -1.881800    1.943800   -2.753300
N     -3.063200    0.580600   -1.007200
C     -3.758000    0.483300    0.285000
C     -3.900700   -0.992800    0.694000
N     -4.498700   -1.835500   -0.347600
O     -2.914600    3.077100   -0.754500
C     -0.387100    2.652100    0.575000
C      0.752600    2.508900    1.348300
C      1.607200    1.435400    1.114900
C      1.363200    0.479400    0.103200
