18

C      3.290000    2.263400   -0.193000
N      2.930500    0.846000   -0.263600
C      3.820900    0.034200   -1.097500
C      1.565200    0.630100   -0.602100
C      1.033000    1.140200   -1.794700
C     -0.292400    0.912500   -2.130000
C     -1.107800    0.170400   -1.276700
C     -0.632100   -0.373500   -0.055800
C     -1.412500   -1.135100    0.867000
S     -3.133400   -1.497700    0.583200
O     -3.620700   -2.347500    1.654600
N     -3.865300    0.062300    0.810800
N     -5.154400   -0.085200    1.409500
O     -3.341400   -1.865800   -0.800000
C     -0.859000   -1.647500    2.051300
C      0.470500   -1.408000    2.354800
C      1.248100   -0.659700    1.476700
C      0.733500   -0.133000    0.271300
