18

C     -4.419800   -0.729600   -0.445600
N     -3.336500    0.093900    0.089500
C     -3.623100    1.524900    0.186500
C     -2.006000   -0.320200   -0.087200
C     -0.925000    0.536300    0.220300
C      0.371600    0.086700    0.049900
C      0.641600   -1.243500   -0.425900
C      2.079300   -1.411300   -0.494000
N      3.041800   -2.247900   -0.798800
C      4.222300   -1.511000   -0.540100
C      3.940600   -0.233700   -0.081000
N      2.592900   -0.238700   -0.076500
C      1.684400    0.730800    0.275200
C      2.199100    1.898900    0.692000
C      3.679600    2.007200    0.724200
C      4.511500    0.993200    0.356500
C     -0.378400   -2.109000   -0.720200
C     -1.690300   -1.637500   -0.541600
