19

C      3.268300    2.112300    1.213200
N      3.560000    0.782400    0.670300
C      4.563000    0.759000   -0.396500
C      2.409100    0.006500    0.417100
C      2.212300   -1.081100    1.272900
C      1.108400   -1.888300    1.094600
N      0.190200   -1.694000    0.128400
C      0.349800   -0.645500   -0.710500
N     -0.623900   -0.421500   -1.701200
C     -1.798000   -1.287000   -1.689300
C     -2.853600   -0.758400   -0.745600
C     -3.176200   -1.453700    0.428100
C     -4.156600   -0.967200    1.294800
C     -4.822000    0.221300    0.999500
C     -4.504100    0.927700   -0.159000
C     -3.523900    0.442200   -1.026200
C      1.450600    0.227300   -0.594600
C      1.563100    1.324800   -1.507400
N      1.676300    2.197100   -2.267500
