19

C     -4.158300   -1.072700    1.645000
N     -2.734300   -1.374500    1.560600
C     -2.400700   -2.770700    1.304200
C     -1.806800   -0.392700    1.268900
N     -0.579300   -0.650000    0.954900
C      0.276700    0.380600    0.680300
N      1.588600    0.025400    0.365800
C      2.191300    0.289200   -0.895100
C      1.455300    0.433600   -2.078500
C      2.105700    0.622700   -3.300900
C      3.497600    0.646700   -3.356200
C      4.240900    0.471700   -2.191500
C      3.590100    0.282100   -0.970700
C     -0.126000    1.660900    0.768700
C      0.731300    2.774400    0.571800
N      1.430100    3.689900    0.419100
C     -1.521100    1.910700    1.111900
O     -1.971700    3.050800    1.180300
O     -2.320300    0.852100    1.348500
