24

C     -5.236500   -1.357300    4.701100
N     -3.872500   -1.208300    4.206700
C     -2.945900   -2.282900    4.554300
C     -3.641600   -0.498900    3.063000
O     -2.403300   -0.634600    2.484800
C     -2.427300    0.170400    1.379200
C     -1.213400    0.209800    0.567900
C     -0.067500   -0.520500    0.907500
C      1.077800   -0.459900    0.106700
C      1.103800    0.328300   -1.045400
O      2.284900    0.294100   -1.731500
C      2.372500    1.081000   -2.916600
C      3.750700    0.895500   -3.501700
C      4.802200    1.745300   -3.130400
C      6.080000    1.564200   -3.662500
C      6.321200    0.527900   -4.562400
C      5.287100   -0.332300   -4.927000
C      4.008500   -0.153000   -4.396200
C     -0.030400    1.059600   -1.393100
C     -1.178100    0.999300   -0.591200
N     -3.567900    0.805600    1.197300
C     -4.337000    0.391800    2.263400
C     -5.669100    0.871600    2.427000
N     -6.761200    1.240700    2.575200
