23

C      5.797600    1.185500   -2.642700
N      5.085500    1.750800   -1.497800
C      3.866400    1.181500   -1.109600
C      2.994200    1.820500   -0.211300
C      1.776700    1.248700    0.192700
C      1.380800    0.002400   -0.290000
C      2.243000   -0.669400   -1.154400
C      3.457600   -0.088200   -1.552900
C      0.132000   -0.647700    0.127800
C     -1.033500    0.002700    0.283900
C     -2.284700   -0.613500    0.686200
C     -3.425200    0.089800    0.814700
C     -4.663800   -0.588700    1.226600
C     -4.559500   -2.033600    1.474700
C     -3.376500   -2.655400    1.321500
C     -3.175300   -4.119100    1.552000
O     -2.224200   -1.982000    0.931100
C     -5.837200    0.081500    1.369700
C     -7.039000   -0.574400    1.768400
N     -8.008600   -1.123100    2.093800
C     -5.941700    1.483400    1.131100
N     -6.008900    2.625200    0.933500
C      5.307600    3.176000   -1.259200
