17

C     -4.850400   -0.987200   -1.082100
N     -4.087400    0.055700   -0.398100
C     -2.691700   -0.048200   -0.339900
C     -1.974400   -0.933300   -1.160700
C     -0.575900   -1.030900   -1.119100
C      0.173000   -0.230000   -0.252600
C      1.577100   -0.314900   -0.197600
C      2.309800    0.500500    0.673700
C      3.801900    0.442000    0.763700
C      4.548300   -0.529300   -0.135500
C      6.053800   -0.461500    0.066400
O      4.383500    1.177200    1.559400
C      1.629000    1.406500    1.493600
C      0.235700    1.496800    1.444100
C     -0.506800    0.682400    0.575300
C     -1.914900    0.759800    0.512600
C     -4.793300    0.749000    0.678500
