21

C     -5.992300    0.968200   -0.759000
N     -5.102700    1.053600    0.389400
C     -3.891400    0.650600    0.280100
S     -3.122300   -0.001900   -1.140000
C     -1.601700   -0.433400   -0.236500
C     -0.358200   -0.012500   -1.008500
C      0.862500   -0.779200   -0.526000
O      0.759500   -1.857300    0.047400
N      2.041800   -0.148300   -0.877100
C      3.371700   -0.560400   -0.606200
C      3.676200   -1.722100    0.110800
C      5.004100   -2.084200    0.353700
C      6.045700   -1.288800   -0.116700
C      5.764000   -0.124500   -0.832900
Cl     7.107300    0.814000   -1.386300
C      4.432700    0.243900   -1.079300
Cl     4.060900    1.692300   -1.972300
C     -1.713000    0.325800    1.072400
O     -0.754400    0.566200    1.799200
N     -3.010400    0.714700    1.323900
C     -3.359900    1.371700    2.566600
