19

C      0.691300    1.589200   -1.804100
N     -0.012400    0.804700   -0.809900
C      0.459700   -0.243100   -0.008800
C      1.566300   -1.008100   -0.106300
C      2.550200   -1.011200   -1.173000
C      3.735900   -1.654600   -1.170600
C      4.572300   -1.570300   -2.320400
N      5.237100   -1.484700   -3.267700
C      4.197500   -2.411700   -0.057500
N      4.556800   -3.028200    0.857900
C     -0.586300   -0.489000    1.135700
C     -0.010300   -0.116400    2.509100
C     -1.122100   -1.929000    1.135000
C     -1.689700    0.480800    0.747000
C     -2.919800    0.696900    1.356500
C     -3.772900    1.650800    0.804100
C     -3.390700    2.366300   -0.338400
C     -2.147500    2.141600   -0.941400
C     -1.290900    1.200600   -0.391800
