32

C     -4.257000   -1.053300    2.458700
N     -3.668800   -0.678800    1.196900
C     -2.291900   -0.799600    0.929500
O     -1.392400   -1.187400    1.645500
C     -2.193800   -0.342100   -0.468500
C     -1.344600   -0.131000   -1.473600
C      0.049900   -0.353000   -1.430700
C      0.814600   -1.236300   -2.170900
C      2.202100   -1.169100   -1.852300
C      2.475300   -0.238200   -0.869600
C      3.772100    0.120000   -0.282600
C      4.873700    0.359300   -1.112700
C      6.118400    0.690900   -0.569300
C      6.291700    0.785400    0.819100
C      7.535100    1.116800    1.381500
C      7.691100    1.203800    2.765700
C      6.607400    0.960700    3.604200
C      5.365000    0.630600    3.060300
C      5.190700    0.539900    1.669600
C      3.945200    0.208600    1.107200
S      1.045700    0.564100   -0.370800
N     -2.043700    0.335700   -2.584200
C     -1.456600    0.715500   -3.844800
C     -3.420700    0.456900   -2.316200
O     -4.320000    0.846600   -3.031300
C     -3.518800   -0.001400   -0.919000
C     -4.367600   -0.213000    0.086000
C     -5.762000    0.008200    0.043900
C     -6.521500    0.920500    0.757000
C     -7.912300    0.842400    0.456200
C     -8.180900   -0.132900   -0.475700
S     -6.766100   -0.948000   -0.977500
