28

C     -3.902300   -1.655200    2.299800
N     -3.087700   -0.974200    1.324600
C     -1.709700   -1.216800    1.174600
O     -0.979200   -1.967000    1.788000
C     -1.346500   -0.333800    0.051800
C     -0.327900    0.071700   -0.706900
C      1.002400   -0.392200   -0.567300
C      1.468300   -1.695400   -0.542800
C      2.878500   -1.781200   -0.356900
C      3.473500   -0.541700   -0.233000
C      4.889900   -0.224600   -0.008900
C      5.544100    0.775800   -0.743300
C      6.896200    1.053900   -0.524100
C      7.611600    0.333700    0.429800
C      6.977500   -0.665600    1.164200
C      5.625900   -0.944400    0.944600
S      2.303800    0.706700   -0.320800
N     -0.793300    0.986600   -1.651300
C     -0.009400    1.622600   -2.679900
C     -2.173900    1.228100   -1.504000
O     -2.904900    1.967600   -2.129300
C     -2.538000    0.347900   -0.381000
C     -3.549800   -0.052900    0.387700
C     -4.886900    0.389600    0.282600
C     -5.636400    1.121300    1.188200
C     -6.965000    1.371300    0.737200
C     -7.198600    0.818100   -0.500200
S     -5.826600    0.001300   -1.107300
