27

C     -3.815800   -1.540100   -2.286600
N     -2.851900   -0.927200   -1.405600
C     -1.488400   -1.261300   -1.436200
O     -0.903300   -2.058300   -2.140300
C     -0.913200   -0.398900   -0.387900
C      0.221700   -0.064600    0.230300
C      1.512700   -0.597600   -0.030700
C      1.905200   -1.762000   -0.679700
C      3.320300   -1.822400   -0.667500
C      3.767400   -0.696800   -0.006000
C      5.117500   -0.287500    0.278800
C      6.290500   -0.930600   -0.071300
C      7.453100   -0.237000    0.379100
C      7.132300    0.914900    1.059800
S      5.442500    1.153700    1.152700
O      2.672500    0.030000    0.373100
N     -0.053400    0.913000    1.189300
C      0.910500    1.530900    2.067900
C     -1.417100    1.247100    1.219400
O     -2.003200    2.044100    1.922500
C     -1.991200    0.384200    0.171100
C     -3.126300    0.050000   -0.446700
C     -4.416400    0.584500   -0.183800
C     -4.801500    1.772000    0.435700
C     -6.215700    1.834600    0.449900
C     -6.643300    0.688600   -0.163600
O     -5.585000   -0.061000   -0.548700
