21

C     -3.889300   -2.938700   -0.173500
N     -3.503500   -1.607100    0.222800
C     -4.380700   -0.677200    0.709300
O     -5.575300   -0.778700    0.910000
C     -3.603700    0.536700    0.955100
C     -3.995200    1.762200    1.451600
C     -3.006300    2.741600    1.569000
C     -1.668400    2.478900    1.191300
C     -1.289700    1.229500    0.687000
N      0.016200    0.880500    0.285100
C      1.144300    1.676000    0.291300
O      1.190600    2.848800    0.652200
C      2.407200    0.971400   -0.207200
C      2.774300   -0.216700    0.688100
C      4.099100   -0.854600    0.267900
C      4.324200   -0.857600   -1.245300
C      3.021100   -0.731800   -2.023700
C      2.294000    0.571900   -1.689400
C     -2.294600    0.279500    0.585700
C     -2.241100   -1.100300    0.105600
O     -1.223700   -1.624400   -0.311700
