24

C      5.889400    1.600200   -0.857300
N      5.020800    0.582700   -0.325500
C      5.477500   -0.637100    0.141300
O      6.620700   -1.051600    0.218300
C      4.283700   -1.350300    0.509500
C      3.976500   -2.573900    1.026900
S      2.263500   -2.724400    1.172200
C      1.968400   -1.127000    0.553300
C      0.629700   -0.612600    0.449800
C     -0.473600   -1.250500   -0.107600
C     -1.600300   -0.429800    0.003800
C     -1.381200    0.780200    0.627400
S      0.224600    0.946100    1.097300
C     -2.510600    1.650000    0.766900
S     -2.669300    3.179200    1.453500
C     -4.358000    3.218400    1.065300
C     -4.791900    2.072300    0.418500
C     -3.713300    1.196800    0.263400
Si    -3.447000   -0.544200   -0.496700
C     -3.694100   -0.574800   -2.324200
C     -4.354300   -1.869200    0.410800
C      3.164600   -0.541700    0.234200
C      3.637500    0.696300   -0.335400
O      2.966400    1.617700   -0.767200
