18

C     -1.873800    1.868700    1.280900
N     -1.779100    0.497100    0.839200
C     -2.144500    0.093100   -0.411700
O     -2.565900    0.800500   -1.314000
C     -2.007200   -1.397800   -0.505100
C     -1.253900   -1.771200    0.762000
S      0.478000   -2.332100    0.518900
C      1.200600   -1.019600   -0.468400
C      1.290200   -1.273700   -1.848800
C      1.794500   -0.315100   -2.731200
C      2.228200    0.914300   -2.249000
C      2.175700    1.176200   -0.881600
C      1.687100    0.209000    0.014500
C      1.691500    0.607300    1.435600
O      1.372800    1.708900    1.845500
O      2.133000   -0.362700    2.246700
C     -1.320500   -0.529800    1.615900
O     -1.000300   -0.467800    2.794700
