25

C      2.230400    1.519100   -0.043500
N      2.354800    0.100700    0.231100
C      1.297800   -0.790600    0.250800
C     -0.037900   -0.492100   -0.184900
C     -0.424800   -0.011100   -1.417200
C     -1.836500    0.167000   -1.507400
C     -2.497600   -0.183100   -0.344000
C     -3.930300   -0.153300   -0.046100
C     -4.464700    0.305000    1.182700
C     -5.849700    0.344100    1.471500
C     -6.832800   -0.069400    0.559500
C     -6.367400   -0.539900   -0.691000
N     -7.146200   -0.979500   -1.691700
S     -6.125500   -1.425300   -2.920700
N     -4.653700   -1.062900   -2.250000
C     -4.887600   -0.585200   -1.012900
S     -1.382200   -0.728900    0.842600
C      1.774300   -1.976800    0.771800
C      3.155000   -1.814900    1.013500
C      3.525000   -0.533500    0.629100
C      4.840500    0.030400    0.647700
S      5.966000   -0.382800    1.900900
C      7.153000    0.662000    1.200400
C      6.674300    1.302800   -0.019000
C      5.420500    0.958100   -0.323300
