29

Si    -4.380000   -1.857300   -0.139300
C     -5.798900   -0.722100    0.269400
C     -5.399300    0.537200    0.500900
C     -3.954900    0.702800    0.375200
C     -3.105900   -0.422500    0.031400
C     -1.622400   -0.405800   -0.130400
C     -0.978300    0.866200    0.081600
C      0.408000    1.056200   -0.027200
C      1.258900    0.002900   -0.349600
C      2.689700    0.300800   -0.435900
C      3.331500    0.753800   -1.618400
C      4.728800    1.056400   -1.710500
C      5.632300    0.942800   -0.632400
C      5.000400    0.502200    0.530400
C      5.675900    0.317100    1.711200
S      4.620500   -0.229800    2.953200
C      3.256800   -0.217700    1.905100
C      3.594800    0.193700    0.636200
C      0.714100   -1.281600   -0.579200
C      1.577500   -2.357300   -0.912100
C      1.113900   -3.643500   -1.150600
C     -0.237300   -3.885900   -1.062400
C     -1.110400   -2.841400   -0.735700
C     -0.703200   -1.505200   -0.477300
C     -1.829300    1.957200    0.418200
C     -1.483200    3.266000    0.672600
N     -2.642000    3.957400    0.955400
C     -3.725000    3.111500    0.885900
C     -3.240700    1.870700    0.555100
