18

C     -1.185800   -2.328000   -0.088900
N     -1.727700   -1.003100   -0.279200
C     -1.271000   -0.044300   -1.159500
C     -0.105500   -0.215900   -2.076500
N      1.057400    0.340800   -1.422500
C      1.949900   -0.447800   -0.736000
O      1.876800   -1.674900   -0.750300
C      3.027900    0.316300    0.055700
C      2.364200    1.155400    1.158100
C      3.988500   -0.690300    0.712300
C      3.831800    1.223300   -0.887300
N     -1.975500    1.067800   -1.045800
C     -2.912000    0.821200   -0.076100
C     -3.911100    1.665500    0.430900
C     -4.751600    1.185600    1.442000
C     -4.598500   -0.108900    1.939900
C     -3.607200   -0.965200    1.445600
C     -2.779800   -0.467700    0.430100
