14

C     -0.693800    2.609200    0.160800
N     -0.322500    1.213300    0.071800
C      0.977500    0.746400    0.088800
C      0.910900   -0.643000   -0.032600
C     -0.470500   -1.005700   -0.106100
C     -1.221200    0.169000   -0.028300
C     -2.626400    0.153700   -0.056500
C     -3.272000   -1.080900   -0.174000
C     -2.544700   -2.263100   -0.259000
C     -1.147100   -2.238900   -0.225300
C      2.112900   -1.382800   -0.051700
C      3.338500   -0.718000    0.054200
C      3.380600    0.666200    0.180200
C      2.204800    1.422500    0.200700
