28

Si    -5.025000   -1.068400   -0.242100
C     -6.034700    0.479000   -0.550300
C     -5.273100    1.581800   -0.643700
C     -3.850100    1.296100   -0.481400
C     -3.424500   -0.049600   -0.252000
C     -2.026900   -0.446500   -0.075800
C     -1.486300   -1.746700    0.156700
C     -2.165200   -2.944900    0.270100
N     -1.252700   -3.964300    0.494200
C      0.021200   -3.454400    0.530300
C     -0.139300   -2.115600    0.324800
C      0.873100   -1.120100    0.268800
C      2.249900   -1.366700    0.422200
C      2.973400   -0.192200    0.316000
S      1.912800    1.136100    0.034500
C      0.462700    0.184600    0.046700
C     -0.924900    0.533700   -0.122200
C     -1.412500    1.849200   -0.352700
C     -0.718600    3.034200   -0.463700
N     -1.621000    4.052600   -0.686900
C     -2.897400    3.551500   -0.723900
C     -2.798800    2.197200   -0.521000
C      4.432500    0.020200    0.410900
C      5.319000   -1.031500    0.637500
C      6.685600   -0.764800    0.716800
C      7.134600    0.540000    0.568800
C      6.193700    1.528300    0.346500
N      4.865500    1.297100    0.265500
