20

C      3.775600    2.215900    1.313900
N      3.112900    1.028900    0.786600
C      1.776200    1.096100    0.433100
C      1.151000    0.001200   -0.032500
C      1.890900   -1.264400   -0.193200
O      1.344800   -2.233000   -0.719600
N      3.193000   -1.270400    0.257400
C      3.955000   -2.498300    0.136500
C      3.866800   -0.139400    0.692800
O      5.068900   -0.172600    0.968500
C     -0.302400   -0.008300   -0.443500
N     -1.090600    1.133000    0.065600
C     -2.381000    1.293300   -0.628700
C     -3.395000    0.139600   -0.496500
C     -3.640100   -0.379500    0.910800
C     -4.208500   -1.748000    0.623100
C     -3.397000   -2.187900   -0.578800
O     -3.022500   -0.999400   -1.294700
C     -0.284100    2.342700   -0.045600
N      1.046000    2.270800    0.524700
