24

C     -0.020300   -1.100300    2.443300
N     -0.006100   -0.531800    1.121400
C     -1.115500   -0.326200    0.345200
C     -2.525700   -0.476700    0.296400
C     -3.023700   -0.019800   -0.929500
C     -4.360700    0.029100   -1.436100
C     -5.317700   -0.893500   -1.213300
C     -6.600000   -0.697700   -1.802800
N     -7.637300   -0.516300   -2.289900
C     -5.121300   -2.074100   -0.444100
N     -4.963800   -3.029700    0.195600
S     -1.760600    0.633400   -1.973600
C     -0.658500    0.239400   -0.789800
C      0.679000    0.384200   -0.713000
S      1.799900    1.008100   -1.773900
C      3.041100    0.666500   -0.567700
C      4.384200    1.015400   -0.915700
C      5.323100    1.467400   -0.060900
C      6.614900    1.780100   -0.574600
N      7.660300    2.025400   -1.014000
C      5.098500    1.680700    1.327600
N      4.918000    1.840700    2.463000
C      2.522700    0.054700    0.579800
C      1.114900   -0.087100    0.472300
