33

C     -5.254800    0.978100    2.243700
N     -5.144600    0.648700    0.838700
C     -6.200600    0.741100   -0.048200
C     -7.535000    1.137700    0.143900
C     -8.390400    1.129600   -0.961800
C     -7.933300    0.740700   -2.216700
C     -6.602900    0.349000   -2.397200
C     -5.718900    0.348100   -1.297000
C     -4.337100    0.016100   -1.140900
C     -3.342300   -0.435000   -2.032100
C     -2.044600   -0.675900   -1.563600
C     -1.711100   -0.474500   -0.220700
C     -0.353000   -0.740100    0.274000
C      0.030700   -1.444000    1.397400
C      1.446600   -1.475900    1.567700
C      2.127300   -0.789000    0.577100
C      3.558100   -0.581100    0.387100
N      4.030800   -0.112300   -0.799700
N      5.427100    0.112000   -1.067000
C      6.419400   -0.117900   -0.160300
C      7.789100    0.156100   -0.581200
C      8.221200    0.514400   -1.851000
C      9.628900    0.718800   -1.931500
C     10.242300    0.516500   -0.718200
S      9.124000    0.087600    0.497000
C      5.974900   -0.610100    1.085800
N      6.652000   -0.954300    2.193300
O      5.720100   -1.367800    3.116400
N      4.440300   -1.299700    2.613700
C      4.549200   -0.839600    1.356400
S      1.012100   -0.115000   -0.548000
C     -2.698400   -0.030400    0.677500
C     -4.001400    0.210800    0.200400
