14

C      0.016700    2.704500   -0.003000
N      0.008000    1.257400   -0.004300
C     -1.133300    0.481500   -0.065000
C     -2.492800    0.834000   -0.123500
C     -3.440000   -0.192700   -0.185100
C     -3.049000   -1.527200   -0.186700
C     -1.694600   -1.868800   -0.123300
C     -0.718000   -0.851500   -0.059300
C      0.709600   -0.860200    0.024200
C      1.674600   -1.889400    0.073800
C      3.031200   -1.564400    0.169100
C      3.435500   -0.234800    0.217300
C      2.500200    0.803400    0.168700
C      1.139000    0.467600    0.068000
