25

C      3.096500    2.944200   -0.442900
N      2.722300    1.548900   -0.236700
C      3.743600    0.573100   -0.097300
C      5.092800    0.832300   -0.405200
C      6.072800   -0.152100   -0.268900
C      5.721200   -1.422000    0.164000
C      4.388600   -1.710800    0.462000
C      3.382200   -0.732900    0.348300
N      2.017700   -0.999400    0.631500
C      1.663200   -2.226500    1.337800
C      0.988300   -0.114700    0.216500
C     -0.372000   -0.484400    0.200100
C     -1.376500    0.399700   -0.215700
C     -2.778200   -0.019400   -0.212100
C     -3.357900   -1.234200   -0.537400
C     -4.764200   -1.129700   -0.353300
C     -5.844300   -2.003900   -0.522700
N     -7.109300   -1.596900   -0.249600
C     -7.306600   -0.333400    0.187900
C     -6.306500    0.607200    0.386700
C     -5.018100    0.163500    0.097600
N     -3.807400    0.810400    0.177100
C     -1.010100    1.673400   -0.647400
C      0.333600    2.058800   -0.659900
C      1.350400    1.190600   -0.226000
