28

C     -4.431300   -2.212800   -1.438800
N     -3.919900   -1.174600   -0.547200
C     -4.833600   -0.224600   -0.014800
C     -6.225400   -0.440800   -0.002000
C     -7.110900    0.525500    0.486000
C     -6.619700    1.707800    1.016500
C     -5.242300    1.927000    1.061100
C     -4.325500    0.987800    0.539100
N     -2.920100    1.201100    0.542500
C     -2.415400    2.530600    0.868000
C     -2.004100    0.193800    0.152900
C     -0.605700    0.336500    0.296000
C      0.291900   -0.648100   -0.149800
C      1.740400   -0.451300   -0.065300
C      2.419400   -0.418900    1.155700
C      3.810200   -0.291000    1.175400
C      4.505600   -0.160600   -0.029900
C      5.974800   -0.023000   -0.083000
C      6.597000    0.779200   -1.042800
C      7.985900    0.841000   -1.092700
C      8.725500    0.067200   -0.202000
C      8.040900   -0.669400    0.748200
N      6.691200   -0.711300    0.844300
N      3.859200   -0.130200   -1.226900
C      2.515700   -0.301400   -1.216800
C     -0.229500   -1.829300   -0.687000
C     -1.609500   -2.017700   -0.790100
C     -2.516500   -1.015400   -0.407000
