25

C     -2.795500    3.075100    0.107600
N     -2.442300    1.662500    0.013100
C     -3.473400    0.700700   -0.148500
C     -4.796000    1.049800   -0.481800
C     -5.785800    0.079500   -0.646200
C     -5.469600   -1.262500   -0.495500
C     -4.162900   -1.637800   -0.179700
C     -3.148500   -0.679600    0.007100
N     -1.808800   -1.030200    0.316400
C     -1.508800   -2.394900    0.738000
C     -0.750100   -0.093300    0.189700
C      0.607400   -0.475100    0.183400
C      1.650200    0.457000    0.048300
C      3.058300    0.025900    0.047700
C      3.975900    0.572200    0.967600
C      5.324800    0.189100    1.004600
C      5.716800   -0.771200    0.074700
N      6.906400   -1.385700   -0.197300
N      6.798700   -2.264400   -1.207100
N      5.536700   -2.243200   -1.618900
C      4.853300   -1.338500   -0.850500
C      3.508700   -0.942400   -0.872800
C      1.310000    1.803700   -0.099100
C     -0.027900    2.208900   -0.113800
C     -1.075700    1.284800    0.035800
