27

C      3.767000    1.253900    2.413100
N      3.270400    0.672600    1.170100
C      4.187900    0.380900    0.127700
C      5.508400    0.869000    0.116300
C      6.384100    0.574900   -0.930100
C      5.952100   -0.201400   -1.995300
C      4.643400   -0.686000   -2.016800
C      3.743900   -0.417900   -0.967600
N      2.404300   -0.885900   -0.966400
C      2.009700   -1.916400   -1.921700
C      1.435300   -0.357100   -0.074500
C      0.051300   -0.565900   -0.243800
C     -0.902700   -0.026700    0.635300
C     -2.339700   -0.264400    0.429300
C     -2.852800   -1.573000    0.389900
C     -4.217000   -1.804900    0.202100
C     -5.082800   -0.721400    0.044500
C     -6.538500   -0.944400   -0.154500
O     -7.026400   -2.068600   -0.179000
C     -7.397500    0.252000   -0.335900
C     -6.823000    1.458500   -0.286600
N     -5.490500    1.673700   -0.061500
C     -4.598900    0.597200    0.062000
C     -3.232200    0.813000    0.269000
C     -0.447200    0.752500    1.701100
C      0.918300    0.988000    1.885100
C      1.879700    0.441100    1.018400
