28

C     -3.662400    2.530300    1.216200
N     -3.236500    1.242900    0.676900
C     -4.219500    0.292400    0.297400
C     -5.574800    0.411500    0.658900
C     -6.516100   -0.546800    0.279800
C     -6.118400   -1.653200   -0.456300
C     -4.778200   -1.804100   -0.815400
C     -3.810700   -0.845200   -0.460000
N     -2.439200   -0.977300   -0.798500
C     -2.046800   -1.959200   -1.804300
C     -1.442400   -0.181200   -0.176900
C     -0.067900   -0.487700   -0.252400
C      0.914300    0.298000    0.374800
C      2.342100   -0.049700    0.279500
C      2.798000   -1.335300    0.619800
C      4.152800   -1.670200    0.529900
C      5.079300   -0.717500    0.097100
C      4.648800    0.563500   -0.241600
C      3.288900    0.895100   -0.152000
C      5.617700    1.580700   -0.695900
O      5.273300    2.717000   -0.992500
C      7.038100    1.188400   -0.782300
C      7.449600   -0.039800   -0.459200
C      6.507800   -1.078000    0.002800
O      6.914200   -2.195400    0.292700
C      0.491800    1.412400    1.104000
C     -0.865700    1.730000    1.210200
C     -1.851700    0.955800    0.576500
