32

Si    -5.378700   -1.787200    0.727500
C     -6.528200   -0.637900   -0.140600
C     -5.894400    0.433400   -0.640400
C     -4.424800    0.474000   -0.400100
C     -3.924100   -0.637400    0.328600
C     -2.535400   -0.781600    0.591100
C     -1.896500   -1.851100    1.316100
C     -2.442200   -2.887200    2.039400
O     -1.464800   -3.692300    2.554200
C     -0.268800   -3.170800    2.169400
C     -0.486600   -2.039300    1.430700
C      0.459800   -1.233000    0.843900
C      1.900100   -1.454300    0.804500
C      2.541900   -0.561800    0.030700
Si     1.379300    0.684900   -0.758800
C     -0.143800   -0.119700    0.160600
C     -1.593000    0.199100    0.074400
C     -2.173100    1.413600   -0.509200
C     -1.426500    2.592100   -0.771500
C     -1.941500    3.730000   -1.400300
C     -3.265400    3.756300   -1.773200
C     -4.069500    2.667800   -1.458600
C     -3.568000    1.513700   -0.800300
C      3.961400   -0.565900   -0.243400
C      4.629400   -1.526000   -1.044300
C      6.047500   -1.516800   -1.304100
C      6.948100   -0.556400   -0.785900
C      6.270600    0.360400    0.006300
C      6.810500    1.417700    0.687200
O      5.820700    2.072900    1.368500
C      4.642900    1.421400    1.115800
C      4.867800    0.365500    0.269500
