24

C      1.894200   -2.992700    1.537000
N      1.747400   -1.589800    1.163400
C      2.758900   -0.666100    1.534500
C      4.028500   -1.067700    1.990700
C      5.005300   -0.133400    2.339500
C      4.737800    1.223100    2.224300
C      3.492800    1.649000    1.759600
C      2.485000    0.728500    1.415900
N      1.217500    1.131300    0.924600
C      0.784500    2.511700    1.120800
C      0.333000    0.210700    0.307000
C     -0.780300    0.623900   -0.452400
C     -1.647400   -0.294100   -1.065800
C     -2.798000    0.162800   -1.863400
C     -2.783700   -0.035300   -3.257900
C     -3.848900    0.379000   -4.060600
C     -4.952700    0.999900   -3.485700
C     -4.990900    1.206800   -2.107400
C     -3.923300    0.793400   -1.293100
C     -4.023900    1.026700    0.121200
N     -4.133700    1.244000    1.256400
C     -1.371800   -1.656600   -0.928400
C     -0.261400   -2.092100   -0.199700
C      0.603200   -1.182200    0.431700
