26

C      3.716700   -2.365000    1.174200
N      3.106900   -1.212600    0.518600
C      3.943900   -0.207300   -0.031900
C      5.321700   -0.125900    0.246200
C      6.116400    0.882500   -0.301200
C      5.546200    1.840400   -1.126600
C      4.179900    1.792200   -1.407100
C      3.357800    0.777400   -0.881400
N      1.963800    0.708700   -1.138000
C      1.395900    1.526600   -2.205200
C      1.107900   -0.115300   -0.361900
C     -0.295900    0.019600   -0.375500
C     -1.138900   -0.793500    0.401700
C     -2.598800   -0.629500    0.361800
C     -3.455000   -1.701800    0.130000
N     -4.805000   -1.612600    0.083400
C     -5.347900   -0.394300    0.272200
C     -6.724700   -0.240000    0.234200
C     -7.311300    1.008600    0.426100
C     -6.478900    2.086100    0.654600
N     -5.133700    1.990900    0.700800
C     -4.588800    0.770000    0.512900
C     -3.210400    0.617000    0.553000
C     -0.543100   -1.753800    1.223600
C      0.846900   -1.897800    1.270200
C      1.694200   -1.099100    0.484400
