26

C     -3.134300   -2.560000   -0.965500
N     -2.716900   -1.229200   -0.535200
C     -3.704200   -0.241700   -0.283400
C     -5.047800   -0.387900   -0.676500
C     -5.992900    0.607500   -0.422600
C     -5.610200    1.777600    0.216600
C     -4.281400    1.955500    0.603900
C     -3.311400    0.961300    0.374500
N     -1.950000    1.119800    0.742600
C     -1.592000    2.171200    1.689600
C     -0.940100    0.262600    0.233600
C      0.434500    0.574000    0.321500
C      1.438200   -0.266000   -0.197500
C      2.872600    0.069600   -0.110700
C      3.365000    1.367300   -0.105900
N      4.682700    1.664000   -0.020000
C      5.527700    0.630500    0.052600
N      6.839400    0.891900    0.138400
C      7.669700   -0.168100    0.205600
C      7.203700   -1.463700    0.187300
N      5.889000   -1.750500    0.101800
C      5.043000   -0.712800    0.035600
N      3.732500   -0.976100   -0.047300
C      1.021400   -1.451800   -0.814600
C     -0.333700   -1.777300   -0.933000
C     -1.334300   -0.940200   -0.417200
