24

C     -3.035700   -2.019700    0.733500
N     -2.260900   -0.853700    0.321300
C     -2.942000    0.289300   -0.173400
C     -4.333800    0.461200   -0.052400
C     -4.971800    1.601700   -0.543900
C     -4.228600    2.602000   -1.153700
C     -2.845200    2.464800   -1.273200
C     -2.179100    1.318500   -0.800200
N     -0.772800    1.160800   -0.891300
C     -0.025200    1.997300   -1.826300
C     -0.088700    0.159900   -0.155600
C      1.312000    0.172000    0.013600
C      1.993600   -0.825600    0.732300
C      3.462000   -0.816500    0.896000
N      3.873600   -0.989700    2.180200
C      5.194500   -0.987900    2.408700
N      6.145800   -0.842100    1.478600
C      5.704500   -0.688000    0.214000
C      4.370400   -0.667600   -0.141900
C      4.008800   -0.522200   -1.511800
N      3.743200   -0.378300   -2.632300
C      1.222800   -1.826800    1.334100
C     -0.170000   -1.846000    1.208900
C     -0.850300   -0.871600    0.462300
