21

C     -1.718300   -2.882800   -0.126500
N     -1.331000   -1.476200   -0.089200
C     -2.325700   -0.479900   -0.268600
C     -3.704200   -0.761300   -0.215800
C     -4.659000    0.242800   -0.383800
C     -4.254700    1.552900   -0.593100
C     -2.894400    1.862500   -0.635200
C     -1.909900    0.867500   -0.484300
N     -0.520200    1.152400   -0.510000
C     -0.068600    2.455000   -0.990200
C      0.437900    0.211900   -0.049700
C      1.774100    0.562800    0.228700
C      2.707100   -0.376100    0.693600
C      4.083200    0.027300    0.967100
N      4.526900    1.320700    0.771300
C      5.782400    1.241400    1.129700
O      6.162800    0.005300    1.532600
N      5.034900   -0.806000    1.425200
C      2.287000   -1.691100    0.898300
C      0.962800   -2.061200    0.645300
C      0.021400   -1.134400    0.165000
