27

C     -5.259500   -1.475000   -0.251700
N     -3.948900   -0.845500   -0.130700
C     -3.852800    0.546100    0.046600
C     -4.947000    1.405500    0.224500
C     -4.769400    2.786000    0.387400
C     -3.491200    3.335900    0.381300
C     -2.388800    2.503800    0.220700
C     -2.572100    1.126300    0.063200
O     -1.420000    0.385000   -0.077400
C     -1.525900   -0.996100   -0.075000
C     -0.311400   -1.719500   -0.050500
C      1.004400   -1.056300   -0.061200
C      1.900100   -1.211800    1.003900
C      3.154700   -0.588900    0.986600
C      3.564000    0.216800   -0.090700
C      4.887900    0.870200   -0.081400
C      5.160200    2.076300   -0.729500
N      6.379100    2.676800   -0.725300
C      7.335500    2.023700   -0.033300
C      7.086200    0.833200    0.623900
N      5.870600    0.238100    0.617200
C      2.663100    0.358400   -1.160200
C      1.407600   -0.265000   -1.144800
C     -0.379200   -3.120200   -0.014700
C     -1.608200   -3.774700   -0.003300
C     -2.796400   -3.040900   -0.037400
C     -2.785600   -1.639700   -0.086900
