24

C     -3.690500   -2.024000   -0.993400
N     -2.599800   -1.153000   -0.568300
C     -2.879600    0.137300   -0.085400
C     -4.168000    0.639400    0.150000
C     -4.365600    1.943900    0.622100
C     -3.276700    2.773000    0.873600
C     -1.988300    2.294100    0.663100
C     -1.797300    0.989000    0.198400
O     -0.485800    0.601000    0.034800
C     -0.229400   -0.728300   -0.258500
C      1.127800   -1.123900   -0.248200
C      2.222100   -0.189400    0.074300
C      2.305100    0.406100    1.348800
C      3.333800    1.292000    1.700000
C      4.282600    1.553400    0.714000
N      5.400700    2.336900    0.670500
N      6.017100    2.268300   -0.520700
N      5.312500    1.442200   -1.284800
C      4.245600    0.991000   -0.553400
C      3.208700    0.108900   -0.887300
C      1.427500   -2.461000   -0.548500
C      0.413800   -3.370900   -0.837400
C     -0.921200   -2.959300   -0.841900
C     -1.274100   -1.630400   -0.567600
