26

C     -4.549900   -1.914100    0.482300
N     -3.348400   -1.108500    0.290700
C     -3.458000    0.281500    0.109000
C     -4.654100    1.007500    0.208000
C     -4.683300    2.393400    0.003100
C     -3.514100    3.084200   -0.300200
C     -2.312400    2.390200   -0.389500
C     -2.288600    1.007900   -0.178700
O     -1.050500    0.412500   -0.275700
C     -0.938200   -0.923100    0.072700
C      0.371800   -1.451300    0.117000
C      1.557300   -0.642300   -0.213600
C      1.765900   -0.175500   -1.523000
C      2.896500    0.577900   -1.844400
C      3.828500    0.876100   -0.848900
C      5.041100    1.673700   -1.168400
O      5.273100    2.080500   -2.301200
C      5.975000    1.977600   -0.055900
C      5.693700    1.494200    1.158700
N      4.607200    0.714800    1.450800
C      3.637500    0.440100    0.473200
C      2.510200   -0.331000    0.774600
C      0.532100   -2.792400    0.493800
C     -0.572100   -3.577100    0.816200
C     -1.859900   -3.037900    0.758900
C     -2.075700   -1.706800    0.374800
