28

C     -5.436200   -1.355100    0.513100
N     -4.108500   -0.814400    0.241400
C     -3.972200    0.493800   -0.255800
C     -5.041600    1.321500   -0.628700
C     -4.823900    2.620400   -1.107700
C     -3.529900    3.117500   -1.229000
C     -2.451600    2.311900   -0.880000
C     -2.674900    1.014600   -0.407600
O     -1.544300    0.290800   -0.100700
C     -1.691900   -1.047400    0.224100
C     -0.499600   -1.792400    0.371700
C      0.834500   -1.184000    0.220400
C      1.694600   -1.594200   -0.800200
C      2.965900   -1.026100   -0.949300
C      3.416900   -0.015500   -0.063300
C      2.551200    0.385900    0.952800
C      1.270200   -0.184800    1.106200
S      3.250700    1.611100    1.928100
C      4.708000    1.632100    1.024200
C      5.832700    2.449800    1.255800
C      6.941200    2.334400    0.415200
C      6.936000    1.427600   -0.633600
C      5.817800    0.618900   -0.858700
C      4.673500    0.710400   -0.022800
C     -0.607800   -3.158300    0.671100
C     -1.855600   -3.759100    0.815900
C     -3.021700   -3.002800    0.673700
C     -2.969700   -1.631000    0.388300
