25

C     -4.350800    1.362200    1.419900
N     -3.153300    0.817900    0.787800
C     -3.275800   -0.088800   -0.280000
C     -4.490000   -0.613700   -0.746700
C     -4.529800   -1.507600   -1.825100
C     -3.353800   -1.899900   -2.457000
C     -2.135600   -1.405400   -2.004400
C     -2.102000   -0.517600   -0.924300
O     -0.849000   -0.093200   -0.541900
C     -0.736500    0.661600    0.614000
C      0.578100    0.935500    1.058600
C      1.771600    0.481600    0.324800
C      1.994200    0.819300   -1.006900
N      3.078800    0.442400   -1.724900
C      3.998100   -0.315700   -1.097200
C      5.128200   -0.734400   -1.781500
C      6.095100   -1.518100   -1.156400
C      5.892800   -1.863300    0.165100
N      4.812200   -1.481800    0.877200
C      3.887700   -0.724300    0.248600
C      2.757100   -0.306400    0.935100
C      0.729700    1.667300    2.246300
C     -0.381700    2.108100    2.960500
C     -1.670500    1.834600    2.496900
C     -1.880000    1.118500    1.310400
