25

C     -3.982500    1.899800    0.936200
N     -2.870100    1.030600    0.564700
C     -3.086000   -0.347000    0.390100
C     -4.343900   -0.966700    0.404600
C     -4.474400   -2.351200    0.233400
C     -3.348100   -3.144900    0.039500
C     -2.090300   -2.552700    0.005600
C     -1.967800   -1.169200    0.169600
O     -0.685100   -0.671800    0.106100
C     -0.513000    0.702700    0.071800
C      0.797700    1.170700   -0.183100
C      1.939200    0.276700   -0.450700
C      1.874100   -0.836300   -1.277800
N      2.934800   -1.638900   -1.529400
C      4.088600   -1.310600   -0.939700
N      5.156700   -2.088400   -1.165900
C      6.309400   -1.732200   -0.564700
C      6.399100   -0.621300    0.243900
N      5.339500    0.177000    0.484200
C      4.180000   -0.159100   -0.098700
N      3.115700    0.620800    0.129200
C      1.001600    2.561500   -0.176100
C     -0.052400    3.445200    0.041700
C     -1.338800    2.958100    0.275000
C     -1.597500    1.581300    0.313700
