20

C     -1.885900    2.760900   -0.246300
N     -1.230200    1.460000   -0.155800
C     -2.005300    0.287600   -0.114300
C     -3.405800    0.258100   -0.043900
C     -4.107200   -0.954600   -0.013500
C     -3.421100   -2.164700   -0.047400
C     -2.031700   -2.162900   -0.103100
C     -1.337200   -0.949300   -0.128700
O      0.035600   -1.049200   -0.173300
C      0.783200    0.107600   -0.036700
C      2.180800   -0.044800    0.087600
C      2.816900   -1.350200    0.028700
C      2.568900   -2.477800   -0.785400
N      3.394800   -3.492600   -0.515200
O      4.206700   -3.035500    0.510500
C      3.855900   -1.763900    0.828600
C      2.970200    1.099300    0.260800
C      2.381500    2.360200    0.313300
C      0.997400    2.497300    0.181800
C      0.168900    1.381800   -0.009000
