20

C     -2.352300   -2.427400    0.427900
N     -1.455600   -1.326100    0.091300
C     -1.800600   -0.430700   -0.935600
C     -3.019300   -0.442100   -1.629900
C     -3.285300    0.482500   -2.648600
C     -2.338600    1.443000   -2.990800
C     -1.127800    1.484300   -2.308300
C     -0.870000    0.561300   -1.289600
O      0.351200    0.688000   -0.666100
C      0.605600   -0.089300    0.450100
C      1.792400    0.175600    1.165500
C      2.772700    1.179800    0.758300
C      3.159100    1.412900   -0.549100
S      4.346000    2.650600   -0.605300
C      4.281800    2.757800    1.103300
N      3.447900    1.940300    1.706100
C      2.046100   -0.547000    2.339000
C      1.155300   -1.521700    2.778100
C     -0.003300   -1.792400    2.047100
C     -0.301000   -1.094100    0.866600
