24

C     -4.353400   -1.473900    0.063100
N     -3.082600   -0.757800    0.097800
C     -3.070600    0.636700    0.274100
C     -4.202700    1.418200    0.548200
C     -4.107400    2.808000    0.702100
C     -2.875200    3.444900    0.590000
C     -1.736000    2.690300    0.333000
C     -1.837100    1.303600    0.186000
O     -0.654200    0.643000   -0.055400
C     -0.653500   -0.740200   -0.032600
C      0.602000   -1.383000   -0.102500
C      1.859000   -0.629300   -0.193300
N      2.082900    0.672800   -0.129600
C      3.439700    0.790900   -0.275500
C      4.271900    1.917300   -0.293800
C      5.650800    1.717700   -0.463500
C      6.183400    0.430000   -0.610600
C      5.362800   -0.704800   -0.594100
C      4.005300   -0.462500   -0.424100
O      3.000700   -1.381500   -0.372100
C      0.624900   -2.787500   -0.075200
C     -0.553900   -3.522700    0.023800
C     -1.784300   -2.868500    0.087400
C     -1.866400   -1.469400    0.047200
