23

C     -3.090900   -0.961800   -1.875900
N     -2.004700   -0.636800   -0.957000
C     -2.279700   -0.423000    0.405100
C     -3.531900   -0.618700    1.005900
C     -3.729600   -0.375900    2.371500
C     -2.675900    0.063100    3.167100
C     -1.420400    0.250700    2.599100
C     -1.228000    0.001900    1.236400
O      0.052000    0.203900    0.768400
C      0.337100   -0.166400   -0.535700
C      1.691900   -0.084600   -0.926900
C      2.744200    0.400200   -0.018500
N      3.682500   -0.532900    0.291300
C      4.659500   -0.155900    1.127900
N      4.800700    1.062600    1.666200
C      3.863000    1.967500    1.316300
C      2.807400    1.695800    0.470400
C      1.890600    2.728000    0.117900
N      1.179400    3.602300   -0.158800
C      2.033200   -0.504400   -2.221000
C      1.057000   -0.967200   -3.099200
C     -0.281100   -1.016600   -2.700300
C     -0.674400   -0.610100   -1.417500
