28

C     -4.894400   -0.836900   -1.779600
N     -4.195800   -0.467300   -0.553900
C     -4.930600   -0.133200    0.599800
C     -6.329800   -0.051000    0.657000
C     -6.991400    0.278100    1.847700
C     -6.266600    0.537300    3.007100
C     -4.877600    0.476500    2.975000
C     -4.221600    0.152500    1.783100
O     -2.843600    0.132400    1.847300
C     -2.153800   -0.036700    0.664000
C     -0.762300    0.099400    0.750900
C      0.055100   -0.042500   -0.379500
C      1.522900    0.096700   -0.274500
C      2.400400   -0.660600   -1.053200
C      3.762200   -0.429600   -0.851200
N      4.864000   -1.001100   -1.442300
C      6.022900   -0.463600   -0.934600
C      7.355900   -0.734300   -1.236100
C      8.280800    0.007400   -0.517000
N      7.973400    0.934300    0.416500
C      6.668400    1.179300    0.692700
C      5.654700    0.484000    0.020800
C      4.225900    0.502100    0.074100
C      3.283500    1.216400    0.819100
N      1.955900    1.003200    0.639600
C     -0.587300   -0.305200   -1.600100
C     -1.983200   -0.443700   -1.684800
C     -2.796200   -0.328000   -0.552000
