24

C     -3.542200   -2.076100   -0.424900
N     -2.857900   -0.837600   -0.069800
C     -3.603600    0.296700    0.302100
C     -5.003900    0.373200    0.273800
C     -5.677200    1.536400    0.670400
C     -4.963200    2.651100    1.099600
C     -3.573400    2.607500    1.123800
C     -2.905700    1.446200    0.721900
O     -1.527800    1.504700    0.765500
C     -0.828500    0.436300    0.241300
C      0.560500    0.602200    0.168800
C      1.377000   -0.405400   -0.358000
C      2.838000   -0.238300   -0.443500
C      3.397100    0.896700   -1.065600
C      4.781900    1.095300   -1.170600
C      5.588700    0.101000   -0.622500
N      6.941300   -0.065800   -0.527300
N      7.263600   -1.208900    0.099800
N      6.128900   -1.813700    0.430500
C      5.089200   -1.033400   -0.000700
C      3.702100   -1.213700    0.095200
C      0.752700   -1.577000   -0.808500
C     -0.639100   -1.741700   -0.729600
C     -1.459900   -0.743600   -0.191700
