26

C      3.912100   -1.405700    2.542700
N      3.397900   -0.817800    1.310500
C      4.286700   -0.253800    0.376000
C      5.669400   -0.122000    0.571600
C      6.492900    0.441500   -0.412300
C      5.949600    0.890400   -1.612300
C      4.579500    0.785100   -1.826400
C      3.760900    0.226900   -0.839400
O      2.414400    0.180200   -1.136900
C      1.555200   -0.227400   -0.136500
C      0.190600   -0.116300   -0.431700
C     -0.778600   -0.484400    0.508500
C     -2.214900   -0.364700    0.209900
C     -3.076600   -1.466100    0.359500
C     -4.441700   -1.355400    0.085500
C     -4.958800   -0.133400   -0.347000
C     -6.408900    0.009000   -0.639600
O     -7.193200   -0.923600   -0.506800
C     -6.887100    1.332400   -1.110900
C     -5.997700    2.324500   -1.224300
N     -4.668300    2.210900   -0.921500
C     -4.123300    0.982200   -0.519600
C     -2.760400    0.857800   -0.228500
C     -0.332600   -0.962600    1.748300
C      1.036000   -1.076800    2.038800
C      2.010800   -0.723200    1.098500
