28

C      4.556600    0.766600    2.807600
N      4.087500    0.245400    1.528500
C      5.014600   -0.203100    0.568900
C      6.407800   -0.113700    0.705200
C      7.268700   -0.593400   -0.291100
C      6.753800   -1.169000   -1.448800
C      5.376000   -1.257100   -1.616100
C      4.520800   -0.772200   -0.621400
O      3.171700   -0.889600   -0.885500
C      2.295700   -0.293300   -0.001000
C      0.949100   -0.305600   -0.385500
C     -0.032000    0.280200    0.422400
C     -1.449700    0.275600    0.025200
C     -1.846300    0.799900   -1.214800
C     -3.189900    0.809500   -1.617300
C     -4.172300    0.278800   -0.760000
C     -3.768400   -0.242000    0.471100
C     -2.429200   -0.255600    0.885700
N     -4.900400   -0.696000    1.108800
C     -6.004600   -0.479100    0.335500
N     -7.258800   -0.813200    0.692000
C     -8.174200   -0.493400   -0.251400
C     -7.904000    0.114200   -1.471100
C     -6.584200    0.438900   -1.788100
C     -5.590900    0.128800   -0.843100
C      0.383300    0.878400    1.620100
C      1.733400    0.885400    2.004000
C      2.718500    0.288800    1.208000
