26

C     -3.857600    1.802200   -1.473400
N     -3.198900    0.769300   -0.681100
C     -3.954500   -0.286200   -0.136000
C     -5.324500   -0.484500   -0.362400
C     -6.011600   -1.555200    0.225300
C     -5.341200   -2.454400    1.049100
C     -3.979600   -2.289400    1.279200
C     -3.297200   -1.222300    0.686400
O     -1.946900   -1.151300    0.961000
C     -1.208000   -0.204900    0.280400
C      0.177800   -0.268900    0.474700
C      1.035000    0.629600   -0.171200
C      2.493200    0.568600    0.025000
C      3.219200    1.730800    0.408300
C      4.606600    1.708700    0.602800
C      5.247500    0.504700    0.406700
C      4.559800   -0.636700    0.035600
C      3.192000   -0.639500   -0.162200
C      5.537400   -1.717800   -0.083400
O      5.287200   -2.864400   -0.393700
N      6.748300   -1.175300    0.220300
C      6.660900    0.148500    0.523900
O      7.556300    0.908100    0.832100
C      0.455200    1.584700   -1.017900
C     -0.934500    1.647900   -1.207100
C     -1.798600    0.762500   -0.552300
