31

Si    -4.826600    1.098500    2.177200
C     -6.434300    0.665800    1.296700
C     -6.243800    0.134600    0.076000
C     -4.832900    0.021400   -0.272100
C     -3.843700    0.462900    0.668300
C     -2.410300    0.412200    0.460600
C     -1.474900    0.857200    1.413200
C     -0.077700    0.793900    1.179100
C      0.884100    1.242600    2.148900
N      0.610400    1.758900    3.361800
S      2.064900    2.095800    4.078400
N      3.112400    1.605600    2.896000
C      2.369100    1.161400    1.866000
C      2.831800    0.643100    0.625300
C      1.842200    0.205900   -0.283300
C      0.446000    0.275000   -0.035100
C     -0.465300   -0.173100   -0.995300
C     -1.862000   -0.109600   -0.761300
C     -2.863200   -0.539900   -1.676000
C     -2.687700   -1.084200   -2.926400
N     -3.941000   -1.345700   -3.441600
C     -4.915600   -0.977200   -2.539600
C     -4.271400   -0.474900   -1.437600
C      4.247800    0.537700    0.324300
S      5.277700    1.943600    0.286300
C      6.693400    1.040300   -0.160800
C      6.335300   -0.253500   -0.280200
N      7.139200   -1.299500   -0.626400
C      6.233500   -2.359100   -0.590800
C      4.939500   -1.926100   -0.227800
C      5.010900   -0.523600   -0.022200
