28

C     -4.684300    2.783000   -0.430300
N     -4.205300    1.425000   -0.196800
C     -5.115400    0.407000    0.145300
C     -6.485700    0.606300    0.369100
C     -7.332300   -0.461300    0.696800
C     -6.824900   -1.751900    0.812700
C     -5.467300   -1.975500    0.609900
C     -4.625500   -0.906100    0.288000
O     -3.293400   -1.224800    0.121300
C     -2.406200   -0.181600   -0.051500
C     -1.051800   -0.538300   -0.065500
C     -0.055700    0.433300   -0.216700
C      1.370400    0.067700   -0.231700
C      1.852600   -0.904000   -1.111800
C      3.207800   -1.257700   -1.135500
C      4.134200   -0.636900   -0.260900
C      3.645200    0.330500    0.614900
C      2.280200    0.689400    0.640100
S      4.892500    0.975600    1.599900
C      6.099200   -0.010400    0.883500
C      7.471200   -0.033400    1.206400
C      8.316500   -0.905000    0.517500
C      7.813300   -1.737000   -0.470900
C      6.451600   -1.710100   -0.786900
C      5.563800   -0.835700   -0.106100
C     -0.464900    1.767600   -0.348300
C     -1.823600    2.120600   -0.339900
C     -2.825400    1.152500   -0.203600
