23

C      3.581100    1.255200    0.390500
N      2.633600    0.173700    0.143000
C      3.099000   -1.083400   -0.288000
C      4.441000   -1.384700   -0.563600
C      4.829300   -2.665800   -0.978300
C      3.881800   -3.673400   -1.131100
C      2.542300   -3.398500   -0.877900
C      2.159000   -2.117000   -0.469200
O      0.807300   -1.937900   -0.258700
C      0.368200   -0.655100   -0.001500
C     -1.021700   -0.493900    0.051400
C     -1.585200    0.763900    0.291300
C     -3.045900    0.934400    0.355200
C     -3.754700    0.352400    1.424300
C     -5.141100    0.482900    1.532100
C     -5.849400    1.197200    0.571600
C     -5.171100    1.780600   -0.497700
C     -3.776700    1.654000   -0.613300
C     -3.134300    2.267200   -1.743000
N     -2.643200    2.786000   -2.658200
C     -0.717000    1.847100    0.478000
C      0.675400    1.679600    0.425600
C      1.250000    0.423200    0.196300
