25

C     -3.700600   -2.307400    0.885000
N     -3.203800   -1.080900    0.270800
C     -4.110900   -0.130100   -0.233900
C     -5.505700   -0.219500   -0.116200
C     -6.345800    0.764000   -0.655300
C     -5.807900    1.861800   -1.320200
C     -4.427600    1.982800   -1.438800
C     -3.593000    1.001400   -0.894500
O     -2.238900    1.217000   -1.048600
C     -1.379100    0.352700   -0.401300
C     -0.022100    0.696700   -0.460200
C      0.947500   -0.092900    0.169700
C      2.373200    0.261300    0.119000
C      2.827900    1.543000    0.416000
N      4.126100    1.926100    0.386100
C      5.035600    0.992800    0.045500
C      6.380200    1.325500   -0.002400
C      7.340300    0.378900   -0.351600
C      6.910700   -0.899400   -0.647700
N      5.615300   -1.275500   -0.615600
C      4.703400   -0.339800   -0.275300
C      3.357500   -0.674000   -0.229600
C      0.505900   -1.232300    0.857900
C     -0.854400   -1.576100    0.910700
C     -1.826400   -0.797900    0.272100
