20

C     -1.820400   -2.559300   -0.743900
N     -1.475300   -1.180900   -0.414100
C     -2.494700   -0.233000   -0.203300
C     -3.866400   -0.526200   -0.199900
C     -4.824100    0.475600    0.007500
C     -4.429600    1.792900    0.221200
C     -3.075400    2.108900    0.237000
C     -2.123200    1.104800    0.034600
O     -0.806300    1.513200    0.083500
C      0.166000    0.534800    0.036300
C      1.478500    0.977400    0.239900
C      2.545700    0.074600    0.223900
C      3.905600    0.564800    0.439800
C      5.055500   -0.124200    0.097900
S      6.446400    0.794700    0.510100
C      5.423400    2.036400    1.096600
N      4.131900    1.813400    1.006100
C      2.259800   -1.279700    0.015500
C      0.941200   -1.717600   -0.192200
C     -0.133000   -0.819200   -0.201100
