24

C     -1.249600   -4.686900   -0.002300
N     -0.810500   -3.315200   -0.007100
C     -1.772400   -2.193500   -0.112600
C     -0.832500   -1.056800   -0.066200
C      0.455500   -1.501100    0.053600
N      1.312400   -0.453500    0.100900
C      2.699800   -0.450200    0.218900
C      3.362200    0.722100    0.236800
C      4.857000    0.797800    0.362900
C      5.656500   -0.479400    0.425700
O      5.419700    1.892700    0.415000
C      2.581000    1.954900    0.120700
C      1.239100    1.950400    0.008000
C      0.532100    0.710300    0.004400
C     -0.813300    0.346600   -0.087000
C     -1.920800    1.274300   -0.197200
C     -2.786100    1.201600   -1.295300
C     -3.866300    2.080500   -1.396200
C     -4.081500    3.025100   -0.399300
O     -5.148600    3.861800   -0.538900
C     -3.234600    3.107900    0.701400
C     -2.153400    2.228400    0.802300
C      0.526500   -2.919700    0.095700
O      1.518200   -3.620300    0.198200
