22

C      6.446700    1.573300    1.159200
N      5.270800    0.807600    0.769200
C      4.431100    1.528400   -0.192000
C      3.129100    0.757800   -0.546000
N      3.217500   -0.713900   -0.435700
C      2.242100   -1.402100   -1.288700
C      0.802400   -1.133400   -0.901700
C     -0.110100   -0.631200   -1.838900
C     -1.445100   -0.398900   -1.485500
C     -1.885900   -0.668500   -0.189900
O     -3.155300   -0.487400    0.285300
C     -4.118700    0.048300   -0.620500
C     -5.432900    0.226400    0.103900
C     -5.491000    0.953100    1.302700
C     -6.707200    1.142200    1.960700
C     -7.879300    0.612200    1.425300
C     -7.836200   -0.106800    0.232100
C     -6.620100   -0.297300   -0.427400
C     -0.981200   -1.173600    0.745800
C      0.350400   -1.406700    0.395600
C      4.587400   -1.166300   -0.702400
C      5.632800   -0.524000    0.250000
