11

C     -2.425400    0.574200   -1.835300
N     -1.892900    0.362900   -0.511600
C     -2.585600    0.540000    0.657600
C     -1.692800    0.222000    1.654300
N     -0.480900   -0.139500    1.125200
C     -0.630200   -0.047800   -0.176200
S      0.594700   -0.388900   -1.351400
C      1.933600   -1.021400   -0.288500
C      2.662100    0.100500    0.444100
C      3.781800   -0.448400    1.220000
N      4.675200   -0.885000    1.818400
