24

Si    -3.925800    2.255800   -0.962200
C     -5.337600    1.025000   -0.770000
C     -4.924100   -0.212100   -0.440600
C     -3.475300   -0.301000   -0.311400
C     -2.686100    0.873100   -0.536300
C     -1.240300    0.933400   -0.443400
C     -0.475100    2.082400   -0.664000
N      0.878700    2.159000   -0.581900
C      1.574100    1.041700   -0.260200
C      0.938100   -0.165500   -0.016000
C     -0.468900   -0.221200   -0.107200
C     -1.274300   -1.373500    0.111200
C     -0.861000   -2.640400    0.447800
N     -1.991000   -3.426500    0.553500
C     -3.120000   -2.680800    0.289500
C     -2.701300   -1.404500    0.012500
C      3.035500    1.197200   -0.189100
S      3.784700    2.759900   -0.507500
C      5.393100    2.190500   -0.251800
C      5.314900    0.886000    0.054700
O      6.369300    0.070500    0.328100
C      5.694500   -1.110100    0.560600
C      4.303700   -1.008800    0.433000
C      4.052600    0.338800    0.091900
