20

C      0.861600    3.179800    0.651200
N     -0.077100    2.146000    0.276200
N     -1.380100    2.488200    0.160900
C     -2.020800    1.337900   -0.084700
C     -1.061700    0.260300   -0.150800
C     -1.340100   -1.085200   -0.402300
C     -2.728500   -1.293600   -0.586500
N     -3.186900   -2.663500   -0.871200
O     -4.392600   -2.908500   -0.723100
O     -2.342600   -3.486300   -1.251800
C     -3.716200   -0.251200   -0.522700
C     -3.393600    1.101200   -0.270600
C      0.182600    0.812300    0.055700
C      1.476100    0.200000    0.083500
C      2.681200    0.652300   -0.427800
C      3.656400   -0.338400   -0.150100
C      3.000600   -1.353800    0.512700
O      1.682900   -1.030400    0.648000
C      3.466300   -2.611500    1.037600
O      2.784100   -3.442600    1.630900
