19

C     -1.537900    3.001800    1.698500
N     -0.528900    2.261000    0.975100
N      0.710400    2.797500    0.889300
C      1.445100    1.866900    0.265000
C      0.613700    0.736200   -0.059900
C      1.019800   -0.423800   -0.722800
C      2.396600   -0.397300   -1.055200
C      2.938000   -1.598700   -1.768900
C      4.423900   -1.715000   -1.988500
O      2.172000   -2.472300   -2.171400
C      3.249800    0.714900   -0.743100
C      2.807100    1.881800   -0.075400
C     -0.657000    1.025800    0.382200
C     -1.864200    0.260100    0.308100
C     -3.157400    0.672300    0.029300
C     -3.984800   -0.477100    0.062800
C     -3.155200   -1.534800    0.351400
O     -1.876700   -1.097300    0.497800
C     -3.369400   -2.985400    0.516700
