23

C      0.232600    2.486700   -1.885000
N     -0.872000    1.748300   -1.311300
N     -2.126300    2.081300   -1.692100
C     -2.924500    1.245200   -1.017800
C     -2.125100    0.381200   -0.182500
C     -2.614500   -0.635400    0.641800
C     -4.028100   -0.735700    0.600600
C     -4.646500   -1.794700    1.461200
C     -6.119600   -2.081500    1.332100
O     -3.949500   -2.412300    2.264500
C     -4.845000    0.121100   -0.208300
C     -4.324300    1.135100   -1.045400
C     -0.807800    0.738900   -0.372800
C      0.420100    0.261000    0.193200
C      0.663100   -0.298200    1.436200
C      2.045700   -0.598700    1.504100
C      2.596800   -0.198300    0.303400
O      1.609800    0.326200   -0.484200
C      3.942300   -0.231600   -0.219100
O      4.774300   -0.809100    0.697700
C      6.151700   -0.915700    0.310800
C      6.895700    0.357700    0.667100
O      4.300100    0.195200   -1.310200
