20

C     -2.044200    2.576700    1.376100
N     -0.791100    2.008800    0.926600
N      0.314500    2.784200    0.977800
C      1.298900    2.017100    0.494200
C      0.773600    0.714500    0.155700
C      1.498900   -0.342900   -0.405500
C      2.861500   -0.012900   -0.601300
C      3.805800   -1.015300   -1.192800
C      3.265400   -2.337900   -1.671800
O      5.004200   -0.755200   -1.278600
C      3.409200    1.268900   -0.255200
C      2.653600    2.326300    0.298700
C     -0.568300    0.726100    0.470300
C     -1.593900   -0.271400    0.387800
C     -1.505300   -1.645400    0.539100
C     -2.808800   -2.177300    0.371900
C     -3.638400   -1.101900    0.140200
O     -2.905700    0.047600    0.153500
C     -5.057600   -1.017100   -0.088500
O     -5.698000    0.018200   -0.252000
