19

C     -0.275000   -2.862500    1.153800
N     -0.923500   -1.598100    0.882800
N     -2.223500   -1.460900    1.224900
C     -2.549300   -0.215500    0.856000
C     -1.400700    0.424000    0.252700
C     -1.346900    1.735100   -0.228300
C     -2.588500    2.392600   -0.076400
C     -2.678900    3.794700   -0.544100
O     -3.713900    4.444400   -0.469100
C     -3.750400    1.787800    0.501400
C     -3.772000    0.463600    0.990300
C     -0.374200   -0.494000    0.268300
C      0.977200   -0.440100   -0.201300
C      1.490400    0.179700   -1.328800
C      2.885500   -0.061500   -1.349100
C      3.157100   -0.825500   -0.238100
O      2.008200   -1.062800    0.455300
C      4.396400   -1.401500    0.328900
O      4.688400   -0.694600    1.527000
