26

Si    -4.416800   -0.732900    2.566800
C     -5.948200   -0.071700    1.716500
C     -5.685800    0.539000    0.547800
C     -4.262800    0.542400    0.212600
C     -3.349100   -0.070400    1.114900
C     -1.921500   -0.148100    0.922500
C     -1.092400   -0.739500    1.875400
N      0.249800   -0.873400    1.792700
C      0.867500   -0.446900    0.690500
C      2.236400   -0.648200    0.638200
C      2.965200   -0.282600   -0.482800
N      2.348200    0.270700   -1.544800
C      1.007500    0.461600   -1.474500
C      0.188200    0.161300   -0.376500
C     -1.251600    0.371400   -0.242400
C     -2.196800    1.047400   -1.117000
C     -1.874000    1.791600   -2.230200
S     -3.248100    2.433000   -3.040700
C     -4.314600    1.796000   -1.867600
C     -3.636100    1.109100   -0.888900
C      4.422100   -0.467900   -0.608300
C      5.144300   -1.431400    0.113100
C      6.525800   -1.554900   -0.045800
C      7.165000   -0.707600   -0.931900
N      6.524200    0.230200   -1.655000
C      5.179500    0.320400   -1.479700
