20

C      2.806300   -1.632700   -2.523100
N      1.514400   -1.434400   -1.905100
N      0.440900   -2.010800   -2.489700
C     -0.609800   -1.592000   -1.769300
C     -0.151000   -0.746200   -0.699300
C     -0.951800   -0.130500    0.268700
C     -2.334500   -0.395800    0.103400
N     -3.309300    0.138300    0.983000
C     -4.251600    1.038400    0.308300
C     -2.851100    0.619200    2.286000
C     -2.798500   -1.249400   -0.964500
C     -1.972700   -1.871000   -1.931300
C      1.221000   -0.679700   -0.791900
C      2.177600    0.010400    0.019000
C      3.413800   -0.415200    0.477700
C      3.964600    0.638700    1.246400
C      3.036200    1.655700    1.229600
O      1.951800    1.276600    0.496000
C      3.034200    2.961800    1.828900
O      3.942800    3.422400    2.515800
