18

C     -1.516200   -3.332100    0.536700
N     -0.363700   -2.479100    0.352100
N      0.860300   -3.028300    0.521600
C      1.717300   -2.004700    0.395600
C      0.982600   -0.796500    0.114000
C      1.526400    0.475200   -0.092700
C      2.932400    0.469800    0.015200
O      3.725700    1.585300   -0.138900
C      3.059000    2.816100   -0.391600
C      3.687900   -0.714700    0.296400
C      3.116600   -1.991500    0.495800
C     -0.350900   -1.134200    0.059700
C     -1.505600   -0.328500   -0.201400
C     -2.638000   -0.622000   -0.944500
C     -3.481100    0.515200   -0.900900
C     -2.818600    1.451100   -0.142300
O     -1.624900    0.952200    0.275000
C     -3.133400    2.828800    0.282000
