20

C      1.019300   -3.517800    0.738300
N     -0.026000   -2.540500    0.533500
N     -1.294600   -2.903300    0.830000
C     -2.019700   -1.789400    0.653200
C     -1.160700   -0.723500    0.205100
C     -1.557800    0.580400   -0.094800
C     -2.943700    0.778100    0.097400
O     -3.345500    2.061400   -0.197500
C     -4.705900    2.392200    0.045100
C     -3.822500   -0.259600    0.542900
C     -3.395100   -1.577000    0.836200
C      0.110600   -1.240700    0.101700
C      1.333800   -0.626800   -0.318400
C      2.350700   -1.137500   -1.106700
C      3.330400   -0.122500   -1.241800
C      2.866600    0.970100   -0.536300
O      1.656400    0.660600    0.017000
C      3.405800    2.296300   -0.305800
C      4.736600    2.599100   -0.951400
O      2.845200    3.157700    0.371900
