19

C     -1.529900    2.922900   -0.828700
N     -0.365600    2.128700   -0.500100
N      0.838300    2.742400   -0.480800
C      1.708600    1.784200   -0.137100
C      1.006600    0.533600    0.038000
C      1.581800   -0.682300    0.427000
C      2.975500   -0.573600    0.619400
O      3.789400   -1.616600    1.002200
C      3.162200   -2.866900    1.257000
C      3.694900    0.650000    0.434700
C      3.095600    1.870300    0.055100
C     -0.323600    0.776700   -0.230000
C     -1.479700   -0.070000   -0.254000
C     -1.585900   -1.411400   -0.582400
C     -2.950300   -1.774600   -0.457500
C     -3.620100   -0.633700   -0.072400
O     -2.733600    0.395000    0.046300
C     -5.012600   -0.384000    0.195100
O     -5.503000    0.699700    0.501900
