18

C     -1.998800   -2.641800   -1.188100
N     -0.746600   -2.021700   -0.816500
N      0.388200   -2.747100   -0.948500
C      1.372900   -1.914000   -0.582100
C      0.812700   -0.639800   -0.212500
C      1.523700    0.475500    0.231100
C      2.915600    0.238500    0.281200
O      3.626900    1.334900    0.714500
C      5.036300    1.193700    0.832100
C      3.504900   -1.013500   -0.084300
C      2.758400   -2.132700   -0.526300
C     -0.551300   -0.736200   -0.362800
C     -1.588700    0.229300   -0.147700
C     -1.726700    1.447100   -0.781200
C     -2.864100    2.172200   -0.319700
C     -3.553800    1.490000    0.660400
S     -2.820900   -0.015300    1.013400
C     -4.781100    1.908300    1.394100
