16

C     -0.238500    2.363000   -1.800600
N     -0.963900    1.257000   -1.217300
N     -2.255500    1.070800   -1.571300
C     -2.638100   -0.029100   -0.903500
C     -1.537200   -0.515600   -0.106100
C     -1.550200   -1.629000    0.733500
C     -2.805800   -2.270300    0.719900
C     -3.919000   -1.823900   -0.057600
C     -3.878800   -0.688500   -0.896400
C     -0.479000    0.334800   -0.319300
C      0.848900    0.349700    0.212700
C      1.363500    1.236900    1.134200
C      2.731000    0.967400    1.435000
C      3.215200   -0.117000    0.733200
C      4.580200   -0.712900    0.769600
S      2.015000   -0.798500   -0.279400
