24

Si    -3.819400    2.019000    0.379700
C     -5.434100    1.044600    0.128300
C     -5.233400   -0.261100   -0.138400
C     -3.812100   -0.614000   -0.169900
C     -2.914100    0.450900    0.079200
C     -1.549400    0.213400    0.070100
O     -0.540400    1.112400    0.287800
C      0.634100    0.419300    0.177900
C      1.913800    0.940900    0.324700
C      2.979000    0.039500    0.168100
C      2.657600   -1.293800   -0.119800
N      1.411500   -1.819100   -0.266400
C      0.405000   -0.925800   -0.109800
C     -0.984300   -1.024900   -0.171700
C     -1.837500   -2.145800   -0.431100
N     -1.392700   -3.367500   -0.673000
S     -2.806400   -4.238400   -0.896800
N     -3.955700   -3.037100   -0.680100
C     -3.281800   -1.898000   -0.422300
C      4.359200    0.537600    0.313000
N      4.655300    1.796600    0.584300
C      6.022500    1.969100    0.660900
C      6.773800    0.837200    0.447200
S      5.738100   -0.488500    0.140000
