15

C     -3.392300    0.831200   -0.957700
N     -2.693100   -0.264000   -0.322900
N     -3.357200   -1.414700   -0.090400
C     -2.456900   -2.189400    0.510200
C     -1.213700   -1.550500    0.643400
C     -1.374700   -0.296900    0.074500
C     -0.447800    0.807700   -0.068400
O     -0.808900    1.963700   -0.278700
C      1.015900    0.568800    0.050900
C      1.791000    1.496900    0.759500
C      3.171300    1.313700    0.875200
C      3.776100    0.212000    0.271300
Cl     5.475300   -0.013700    0.412900
C      3.014700   -0.704600   -0.454100
C      1.633300   -0.524500   -0.571400
