19

C      3.994300    2.901200   -0.359000
N      3.088400    1.817100   -0.638900
C      3.265800    0.939500   -1.674000
O      4.235500    1.004100   -2.426700
C      2.266200   -0.085700   -1.860000
N      2.413900   -1.011300   -2.875500
C      1.363600   -1.874200   -2.847600
N      0.528000   -1.572600   -1.884500
C      1.070700   -0.450000   -1.250900
C      0.370600    0.160300   -0.111000
O      0.800600    1.152500    0.465100
N     -0.784600   -0.534200    0.183000
C     -1.743400   -0.287000    1.185300
C     -1.645200    0.798000    2.064400
C     -2.613700    1.015900    3.047900
C     -3.694800    0.151600    3.166100
C     -3.808700   -0.933000    2.299700
C     -2.842800   -1.165700    1.304300
C     -3.020900   -2.357600    0.400900
