27

Si    -4.168700    2.792000   -0.596100
C     -5.871300    1.925600   -0.616300
C     -5.794500    0.588400   -0.462800
C     -4.416600    0.134400   -0.318300
C     -3.409800    1.136200   -0.360600
C     -2.058500    0.804000   -0.231400
O     -0.972900    1.636400   -0.249500
C      0.139600    0.849600   -0.086200
C      1.444900    1.321400   -0.049300
C      2.419000    0.342600    0.125900
N      2.115500   -0.975700    0.251300
C      0.829400   -1.409500    0.211500
C     -0.202700   -0.495800    0.039600
C     -1.592400   -0.489600   -0.056100
C     -2.569900   -1.525600   -0.008000
C     -2.470700   -2.871000    0.147900
O     -3.746700   -3.383000    0.117600
C     -4.618200   -2.332800   -0.058500
C     -3.923200   -1.151200   -0.142000
C      3.848600    0.655400    0.189100
S      4.503400    2.267000    0.055900
C      6.150600    1.747600    0.225900
C      6.138400    0.407800    0.373000
C      7.035600   -0.654900    0.551800
C      6.228200   -1.795600    0.622500
O      4.875700   -1.541700    0.502000
C      4.897100   -0.185500    0.353700
