16

C     -4.984900    0.611500    0.502800
N     -3.839000    1.490200    0.652500
C     -2.554300    0.995200    0.408500
C     -1.507900    1.909400    0.233100
C     -0.186000    1.483200    0.050000
C      0.141100    0.121500    0.065600
C      1.528600   -0.331300   -0.124100
C      2.271300    0.070700   -1.250400
C      3.588600   -0.356800   -1.435500
C      4.168700   -1.192100   -0.485900
N      5.477100   -1.618900   -0.665500
C      6.581900   -1.979500   -0.817600
C      3.465000   -1.608500    0.639800
C      2.147900   -1.176800    0.815900
C     -0.898600   -0.792600    0.282800
C     -2.220400   -0.360400    0.464800
