16

C      2.008800    3.652500    0.092300
N      2.256900    2.738200   -1.000100
C      1.783100    1.447200   -0.787100
N      2.531400    0.479900   -1.281900
C      2.055000   -0.737200   -1.076000
O      2.843100   -1.747500   -1.589100
C      2.309600   -3.045300   -1.365000
N      0.931500   -1.040000   -0.436000
C      0.240800   -0.004400    0.023500
N     -0.929400   -0.247600    0.720300
C     -1.477700   -1.606000    0.661200
C     -2.788200   -1.667100    1.460100
O     -3.803000   -0.777200    0.969200
C     -3.275300    0.393200    0.324900
C     -1.906300    0.838800    0.865600
N      0.647300    1.251700   -0.127800
