21

C      5.643600    0.054900   -0.714900
O      4.465100   -0.723900   -0.936100
C      3.327100   -0.178200   -0.400700
O      3.302900    0.868200    0.236300
C      2.116100   -1.093400   -0.683200
O      2.486600   -2.446800   -0.342500
N      1.033400   -0.826500    0.241100
C      0.226300    0.255300    0.127200
O      0.227400    1.018700   -0.823500
O     -0.556500    0.342800    1.223500
C     -1.483700    1.434800    1.236700
C     -2.840500    0.947100    0.800100
C     -3.235600    1.056600   -0.540300
C     -4.484100    0.586800   -0.950500
C     -5.345800   -0.002700   -0.027500
C     -4.958200   -0.128200    1.305400
C     -3.709500    0.340200    1.717500
C      1.830900   -0.942800   -2.203800
F      1.977500    0.310500   -2.678600
F      2.705600   -1.723700   -2.903500
F      0.593500   -1.381800   -2.537600
