18

C     -2.422800    1.553300    1.755000
O     -2.284000    0.270600    1.143000
C     -2.288700    0.303000   -0.220500
O     -2.406300    1.316900   -0.897000
C     -2.060300   -1.077700   -0.772400
C     -2.934300   -1.330300   -1.975600
O     -4.140600   -1.507100   -1.969900
N     -2.148600   -1.307400   -3.113500
C     -0.819700   -0.856200   -2.818200
C     -0.644800   -1.268800   -1.354700
C      0.482900   -0.653500   -0.560500
C      1.007800   -1.363700    0.531500
C      2.036800   -0.831200    1.317300
C      2.556700    0.427800    1.029200
O      3.554700    1.064800    1.712400
C      4.121800    0.371400    2.816600
C      2.034600    1.144700   -0.047500
C      1.007400    0.614500   -0.834800
