21

C      6.376300    1.297700   -0.535600
O      5.007900    1.017600   -0.241400
C      4.754200   -0.304100    0.004700
O      5.609900   -1.181500   -0.010800
C      3.348200   -0.482400    0.283000
C      2.285900    0.401900    0.345900
C      1.119200   -0.354000    0.659300
C     -0.269100    0.169200    0.839500
C     -1.185400   -0.130500   -0.337600
O     -0.824700   -0.749400   -1.340500
C     -2.603900    0.344500   -0.285500
C     -3.103100    1.048400    0.820900
C     -4.433600    1.479400    0.840500
C     -5.266900    1.210600   -0.238700
O     -6.554200    1.652200   -0.170400
C     -4.795900    0.515200   -1.344500
C     -3.468900    0.085300   -1.364400
O     -3.083800   -0.593500   -2.491700
C      1.550900   -1.663900    0.767200
C      0.868000   -2.945600    1.043100
O      2.890700   -1.744200    0.547400
