28

C      7.157700    2.441300   -1.406500
O      6.493600    1.452300   -0.620300
C      5.137700    1.433000   -0.771500
O      4.521600    2.191600   -1.512400
C      4.512200    0.404500    0.053300
C      3.127800    0.144600    0.090700
C      2.766800   -0.904700    0.979200
C      3.929500   -1.399500    1.564600
C      3.663300   -2.427700    2.420900
S      1.971800   -2.745700    2.466100
C      1.595100   -1.495700    1.330300
C      0.250200   -1.193100    0.916400
C     -0.293600    0.059200    0.726700
C     -1.660700    0.035700    0.278500
C     -2.132300   -1.270600    0.174200
S     -0.895100   -2.408100    0.562800
C     -3.458500   -1.525900   -0.206200
O     -3.901700   -2.837300   -0.328900
C     -4.483500   -3.268500    0.902900
C     -4.339900   -0.475200   -0.531200
C     -5.707800   -0.499800   -0.978600
C     -6.236400    0.753900   -1.166800
S     -5.104400    1.975700   -0.816800
C     -3.866900    0.833300   -0.426700
C     -2.540500    1.087200   -0.045900
O     -2.094200    2.397600    0.077200
C     -1.510100    2.828200   -1.153900
S      5.484100   -0.628500    1.102000
