30

C      7.721000    1.318800   -0.351700
O      6.573900    1.319900   -1.201100
C      5.396800    1.080300   -0.553000
O      5.311400    0.879000    0.653500
C      4.259800    1.093300   -1.468000
C      2.922700    0.865300   -1.085900
C      1.999900    0.930300   -2.165800
C      2.709900    1.223000   -3.327700
C      1.886000    1.317600   -4.411100
S      0.252000    1.041800   -3.945700
C      0.653200    0.795000   -2.280000
C     -0.333800    0.483800   -1.281600
S     -1.837400    1.290400   -1.196500
C     -2.355000    0.390400    0.184900
C     -1.383200   -0.525300    0.584500
C     -0.243300   -0.444100   -0.273200
F      0.830800   -1.235000   -0.110800
C     -1.657900   -1.335300    1.703800
O     -0.695200   -2.232400    2.146000
C     -0.853000   -3.487500    1.482800
C     -2.843700   -1.179400    2.438400
S     -3.319700   -2.014400    3.880600
C     -4.795500   -1.171800    3.977900
C     -4.920000   -0.284300    2.944900
F     -6.002900    0.495200    2.803400
C     -3.816500   -0.261000    2.038800
C     -3.569600    0.500200    0.879600
O     -4.501500    1.446400    0.474900
C     -5.467200    0.844800   -0.388700
S      4.489600    1.413400   -3.187800
