28

C      7.723600   -1.523100    1.616600
O      6.755300   -0.918300    0.758800
C      5.465400   -1.057300    1.190400
O      5.150800   -1.647400    2.217200
C      4.562100   -0.406500    0.250400
C      4.888500    0.269700   -0.940800
C      3.757900    0.785800   -1.616700
C      3.610500    1.472100   -2.770900
S      1.929200    1.760300   -3.002100
C      1.488400    0.974400   -1.526600
C      0.127100    0.869500   -1.088200
C     -0.943000    0.393400   -1.813600
C     -2.187500    0.425800   -1.091600
C     -2.015400    0.962500    0.182700
S     -0.368700    1.398800    0.454800
C     -3.104100    1.095700    1.057600
O     -2.914700    1.651400    2.317300
C     -2.658100    0.615800    3.267400
C     -4.411100    0.760600    0.651300
C     -5.669700    0.883900    1.338600
C     -6.735900    0.440200    0.595100
S     -6.247700   -0.126700   -0.933800
C     -4.582600    0.218500   -0.622800
C     -3.482400    0.019700   -1.470700
O     -3.675600   -0.504400   -2.743200
C     -3.516300   -1.923500   -2.709400
C      2.603700    0.483200   -0.896900
S      2.836700   -0.460300    0.624100
