17

C      5.297000   -0.833200    0.217900
O      4.050800   -0.143300    0.117300
C      2.956000   -0.959700    0.182200
O      3.020300   -2.175900    0.317200
C      1.742400   -0.161200    0.069200
C      1.632400    1.235100   -0.075400
C      0.293100    1.683600   -0.155400
C     -0.259000    2.907600   -0.300700
S     -1.968600    2.714100   -0.330400
C     -1.882000    0.996200   -0.143900
C     -3.039700    0.148900   -0.069000
C     -3.291900   -0.849200    0.854600
C     -4.538400   -1.504900    0.630800
C     -5.202500   -0.987300   -0.457200
S     -4.327000    0.279300   -1.198500
C     -0.572000    0.595000   -0.064400
S      0.203000   -1.026000    0.113500
