19

C     -1.162900    2.950100   -0.452600
O     -1.455700    1.668300    0.107000
C     -2.436600    0.995000   -0.536800
O     -3.077400    1.387600   -1.498000
C     -2.697100   -0.282800    0.163700
C     -4.056100   -0.615800    0.315500
C     -4.426400   -1.794500    0.953900
C     -3.441100   -2.640800    1.445600
C     -2.087000   -2.322900    1.279800
C     -1.683000   -1.158800    0.612000
N     -0.310100   -0.834600    0.416100
C      0.811200   -1.631700    0.344700
S      0.927000   -3.300300    0.274800
N      2.020100   -0.960900    0.284200
C      2.283100    0.392900    0.232500
O      1.443200    1.280900    0.226500
C      3.730200    0.725800    0.193600
C      4.265200    1.590500   -0.924300
C      4.643500    0.140600   -0.859200
