17

C      4.831400    0.920300   -2.651800
O      3.743000    1.341600   -1.831900
C      3.065600    0.319600   -1.227800
O      3.350200   -0.867300   -1.368800
C      1.964800    0.789200   -0.405000
N      1.601300    2.113700   -0.302100
N      0.560800    2.201800    0.514100
N      0.259500    0.953700    0.927600
C     -0.782700    0.758200    1.920800
C     -1.989100    0.043000    1.360500
C     -2.690600    0.563900    0.262000
C     -3.808900   -0.100000   -0.244100
C     -4.244100   -1.284700    0.345800
C     -3.565000   -1.805500    1.445200
C     -2.445700   -1.144200    1.953600
C      1.109300    0.024500    0.373400
N      1.034200   -1.309700    0.619000
