29

C      6.418700    2.087200   -2.391500
O      5.396700    1.391500   -1.677300
C      5.862400    0.548500   -0.708100
O      7.053500    0.396600   -0.462300
C      4.774900   -0.129200   -0.021300
S      3.089800    0.181800   -0.462300
C      2.656800   -1.016000    0.823200
C      3.723200   -1.576700    1.523300
C      3.432300   -2.458200    2.504600
S      1.719800   -2.605800    2.587600
C      1.458100   -1.499600    1.283200
C      0.145300   -1.166600    0.810200
C     -0.934000   -0.771400    1.570200
C     -2.122400   -0.522000    0.797800
C     -1.901800   -0.765300   -0.556100
S     -0.278600   -1.276500   -0.837900
C     -2.932300   -0.594000   -1.492700
O     -2.696000   -0.861000   -2.835900
C     -2.304700    0.339000   -3.504700
C     -4.235400   -0.243300   -1.086700
C     -5.447900   -0.091300   -1.847200
C     -6.527000    0.265300   -1.075900
S     -6.106400    0.420400    0.566100
C     -4.454900    0.005400    0.268500
C     -3.405700   -0.097000    1.194700
O     -3.648100    0.135000    2.543100
C     -3.381700    1.503700    2.853200
C      4.927900   -1.053200    1.015900
F      6.126200   -1.415800    1.499600
