23

Si     4.209600    2.493500    0.653500
C      5.706600    1.326900    0.566500
C      5.365700    0.044400    0.334700
C      3.922500   -0.128400    0.207600
C      3.114500    1.030800    0.340500
C      1.702500    1.004900    0.239400
S      0.542200    2.302800    0.370700
C     -0.772000    1.258500    0.110700
C     -2.153500    1.613700    0.073500
C     -2.959000    0.547600   -0.155100
Si    -1.901100   -1.056700   -0.342800
C     -0.362000   -0.046500   -0.073100
C      1.011600   -0.192200   -0.002500
C      1.796900   -1.393100   -0.143800
C      1.429200   -2.685400   -0.379200
N      2.614000   -3.397900   -0.413700
C      3.690700   -2.554600   -0.202800
C      3.196700   -1.282400   -0.029800
C     -4.371500    0.638300   -0.237600
C     -5.250700    1.704500   -0.123100
C     -6.569100    1.220100   -0.293500
C     -6.475800   -0.132900   -0.509300
N     -5.148500   -0.476600   -0.474200
