18

C      4.245500   -0.180800    2.169500
O      3.837500    0.693400    1.116700
C      3.007700    0.113900    0.206600
O      2.652100   -1.057100    0.215900
C      2.627000    1.118900   -0.853500
C      1.456700    0.610000   -1.688800
C      0.163900    0.570600   -0.887200
O      0.042000    1.194800    0.160200
N     -0.799300   -0.187900   -1.513300
C     -2.074500   -0.430100   -1.068700
N     -2.915800   -1.180600   -1.744000
N     -4.140000   -1.290600   -1.117000
C     -4.179200   -0.616100    0.018400
C     -5.338800   -0.518100    0.948500
F     -6.420300   -1.222300    0.519000
F     -5.759700    0.766000    1.112100
F     -5.044600   -0.989300    2.191000
S     -2.707000    0.201300    0.379500
