23

C      7.332700    1.726800   -0.094800
O      6.336000    1.559800    0.914600
C      5.125600    1.161700    0.437600
O      4.882500    0.962000   -0.744500
N      4.250900    1.047000    1.495600
N      2.892600    0.864800    1.415500
C      2.419500    0.130500    0.452200
C      1.001200   -0.061900    0.272700
S     -0.100500    0.951600    1.118700
C     -1.447900    0.185800    0.362800
N     -2.748800    0.530400    0.593400
C     -3.806800   -0.303700    0.024700
C     -5.027100   -0.305400    0.942100
C     -5.579900    1.099300    1.172600
C     -4.523500    2.186500    0.992800
C     -3.125500    1.704700    1.375600
N     -1.097000   -0.782700   -0.452600
C      0.282500   -0.946000   -0.509800
C      0.831800   -2.111400   -1.432300
C     -0.023600   -2.902800   -2.176300
C      0.664400   -3.895600   -2.932700
C      2.024800   -3.832400   -2.736500
S      2.452300   -2.587100   -1.647500
