19

C      4.068000   -2.252600    0.828700
O      3.637800   -0.914800    0.622400
C      2.316400   -0.711800    0.310900
C      1.909400    0.630700    0.180600
O      2.884400    1.578200    0.376600
C      2.475600    2.934500    0.476800
C      0.579100    0.924800   -0.146800
C      1.382100   -1.734400    0.124100
C      0.055800   -1.431500   -0.197300
C     -0.357300   -0.103200   -0.341200
C     -1.753500    0.206900   -0.703200
C     -2.002400    0.893800   -1.834400
C     -3.434800    1.153500   -2.136900
N     -4.452700    0.783200   -1.425900
C     -4.162300    0.083900   -0.289200
N     -4.984800   -0.412000    0.609100
C     -4.155100   -0.999400    1.509900
N     -2.852800   -0.916900    1.245800
N     -2.839600   -0.212400    0.083300
