20

C     -6.481400    1.206200   -0.782900
O     -5.952400   -0.055700   -0.396600
C     -4.594700   -0.203700   -0.466000
C     -3.682200    0.766700   -0.878000
C     -2.310900    0.480200   -0.900900
C     -4.123700   -1.461300   -0.084100
C     -2.755700   -1.748900   -0.108200
C     -1.834200   -0.774900   -0.503800
C     -0.407100   -1.117500   -0.542500
C      0.570100   -0.293100   -0.125500
C      2.010500   -0.633900   -0.156700
C      3.008400    0.185200    0.439500
C      4.349700   -0.249100    0.310500
C      5.396500    0.504700    0.868600
C      5.140600    1.686700    1.560600
C      3.833700    2.129700    1.705800
C      2.782400    1.391500    1.155600
C      4.632700   -1.433000   -0.373200
C      3.588200   -2.157500   -0.909500
N      2.298800   -1.787700   -0.817200
