20

C     -6.996900    0.704500   -0.351800
O     -6.144000   -0.122800   -1.132600
C     -4.802600   -0.039200   -0.880700
C     -4.194100    0.781000    0.068500
C     -2.801500    0.767300    0.223200
C     -4.006100   -0.865900   -1.675100
C     -2.616400   -0.879200   -1.522700
C     -2.001100   -0.072100   -0.561100
C     -0.537500   -0.091400   -0.446700
C      0.122900   -0.050500    0.722700
C      1.589400   -0.083500    0.836500
N      2.304600   -0.129500   -0.312100
C      3.646700   -0.158900   -0.236800
C      4.395200   -0.206000   -1.405400
C      5.793000   -0.238200   -1.383600
C      6.466900   -0.223200   -0.167700
C      5.741200   -0.176000    1.020700
C      4.335600   -0.143600    0.993200
C      3.576300   -0.095900    2.166900
C      2.187300   -0.065100    2.089500
