23

C      6.772300    0.462900    0.303500
O      5.881500    0.665600   -0.785700
C      4.547300    0.507600   -0.531300
C      3.712400    0.733500   -1.626700
C      2.325600    0.606100   -1.504000
C      3.980300    0.157000    0.693700
C      2.589800    0.027100    0.817100
C      1.749800    0.239600   -0.282500
C      0.305000    0.115600   -0.185900
C     -0.406100   -0.767800    0.624100
N     -1.680900   -0.456300    0.308100
C     -1.765000    0.516500   -0.618700
C     -3.182300    0.721000   -0.840800
C     -3.898800   -0.197300    0.015600
C     -5.276100   -0.232600    0.022000
C     -5.943900    0.654600   -0.831500
C     -5.238700    1.551100   -1.667400
C     -3.840500    1.592000   -1.679000
C     -2.877300   -0.964200    0.759400
C     -2.800300   -1.942900    1.674500
C     -1.441400   -2.370600    2.083500
C     -0.302100   -1.817100    1.584400
N     -0.568800    0.908700   -0.977700
