32

Si     5.094600    2.158100    2.250400
C      6.707800    1.560800    1.445700
C      6.513200    0.634900    0.487100
C      5.101500    0.318000    0.310500
C      4.169000    0.994700    1.131000
C      2.766300    0.803600    1.039000
S      1.499200    1.639700    1.837300
C      0.265800    0.734900    1.045800
C     -1.111900    0.992700    1.150200
C     -2.040000    0.144900    0.531100
C     -3.455100    0.499300    0.632000
C     -4.266500    0.202600    1.758300
C     -5.652000    0.551200    1.866800
C     -6.373200    1.235000    0.865100
C     -5.574600    1.529900   -0.239700
C     -6.056400    2.193700   -1.340600
S     -4.830200    2.404500   -2.526700
C     -3.652300    1.605300   -1.561100
C     -4.178800    1.184100   -0.361500
C     -1.588300   -1.036800   -0.094900
C     -2.482100   -1.994400   -0.632500
C     -2.038300   -3.210000   -1.151900
C     -0.688300   -3.514900   -1.120700
C      0.219500   -2.582200   -0.618900
C     -0.190800   -1.308600   -0.162100
C      0.770900   -0.333600    0.296700
C      2.190500   -0.138300    0.180300
C      3.113800   -0.763500   -0.752800
C      2.926600   -1.511200   -1.876800
O      4.154900   -1.816000   -2.405900
C      5.101000   -1.200600   -1.629100
C      4.493200   -0.503800   -0.613600
