21

C      7.429800    0.361100   -0.563100
O      6.284800    1.165700   -0.815300
C      5.067300    0.621600   -0.511900
C      4.845800   -0.648900    0.021600
C      3.541800   -1.085500    0.286900
C      3.975100    1.452300   -0.778200
C      2.670100    1.025600   -0.516900
C      2.449500   -0.249100    0.018300
N      1.127700   -0.692000    0.287300
N      0.042700    0.086700    0.041700
C     -0.986900   -0.685400    0.425700
C     -0.460100   -1.910000    0.890500
N      0.870600   -1.921000    0.806200
C     -2.379700   -0.242800    0.338000
C     -3.436300   -1.069800    0.746200
C     -4.767800   -0.636400    0.658100
C     -5.063900    0.631200    0.160300
O     -6.311300    1.172400    0.022600
C     -7.411700    0.366700    0.425000
C     -4.018700    1.459800   -0.247800
C     -2.690600    1.029700   -0.160900
