21

C     -2.745900   -1.619100    2.349900
O     -2.817000   -1.336500    0.951500
C     -1.762100   -0.525500    0.587900
C     -0.573600   -1.110200    0.108300
O     -0.345300   -2.450200   -0.024300
C     -1.385600   -3.149600   -0.705300
C      0.464500   -0.253100   -0.191300
C      0.299000    1.179000   -0.071800
C      1.544700    1.804700   -0.469500
N      2.151400    2.955900   -0.626200
C      3.442100    2.595000   -1.082000
C      3.582700    1.220100   -1.190300
N      2.367700    0.791000   -0.795500
C      1.848500   -0.474600   -0.674300
C      2.673900   -1.483000   -0.998700
C      4.040000   -1.116800   -1.448700
C      4.476200    0.170400   -1.540600
C     -0.881000    1.753300    0.350700
C     -1.930800    0.890200    0.683900
O     -3.161200    1.310200    1.131200
C     -3.409500    2.710100    1.142700
