28

C     -4.350700   -2.941800   -0.124700
O     -3.924400   -1.849500   -0.941400
C     -3.242300   -0.920000   -0.165500
C     -1.846100   -0.998000   -0.051000
C     -1.140200   -0.061700    0.700500
C      0.266500   -0.363700    0.716600
C      0.605000   -1.470900   -0.030300
C      1.924700   -2.008400   -0.230700
C      3.101600   -1.373700   -0.469700
C      4.236800   -2.171800   -0.599400
S      5.801600   -1.346900   -0.923600
C      4.867000    0.155400   -0.897400
C      5.593400    1.401400   -1.127200
C      4.794700    2.683700   -1.120200
O      6.809000    1.458700   -1.322900
C      3.502100   -0.027500   -0.655700
F      2.634100    0.995100   -0.608300
C      3.943300   -3.495900   -0.451600
S      2.260700   -3.705000   -0.158000
S     -0.780500   -2.160400   -0.750300
C     -1.863200    0.984800    1.306300
O     -1.177400    1.914900    2.078400
C     -0.750700    3.003900    1.257500
C     -3.259400    1.064200    1.192400
C     -3.967200    0.125800    0.440500
C     -5.374800    0.426600    0.424800
C     -5.697900    1.534700    1.169400
S     -4.324000    2.233000    1.891600
