23

C      4.925300    2.201400    0.313300
O      4.904500    0.780900    0.394700
C      3.682300    0.177700    0.295600
C      2.459300    0.818500    0.133600
C      1.269800    0.071700    0.046500
C     -0.009600    0.756900   -0.093200
N     -0.192300    2.055300   -0.210500
C     -1.545600    2.229300   -0.205600
C     -2.260800    3.436900   -0.262900
C     -3.653100    3.410000   -0.171800
C     -4.320500    2.200900   -0.008200
C     -3.623600    0.985600    0.043100
C     -2.223400    1.011100   -0.093600
N     -1.208500    0.057100   -0.120700
C     -1.244800   -1.370900   -0.156300
C     -0.014300   -2.072900   -0.015000
C     -0.071100   -3.481700   -0.029800
C     -1.275200   -4.168500   -0.199800
C     -2.455500   -3.463200   -0.378500
C     -2.441800   -2.069400   -0.365700
C      1.275500   -1.335700    0.114000
C      2.523800   -1.958800    0.283600
C      3.705800   -1.212200    0.372700
