21

C     -1.271500    3.204400   -1.332700
O     -1.325400    2.630800   -0.025000
C     -1.394700    1.246100   -0.122000
C     -0.196900    0.504200   -0.132800
C      1.175500    0.933600   -0.074000
C      2.091100   -0.097700   -0.139300
C      3.533900    0.027100   -0.097400
C      4.255200    1.100500    0.400500
C      5.666200    0.926200    0.288200
C      5.988200   -0.275400   -0.297100
S      4.598800   -1.180000   -0.704600
S      1.281800   -1.598800   -0.261600
C     -0.284800   -0.882900   -0.206900
C     -1.533700   -1.522300   -0.229400
O     -1.600000   -2.906900   -0.329600
C     -1.654200   -3.484500    0.976200
C     -2.733100   -0.782200   -0.216900
C     -4.105000   -1.214100   -0.273100
C     -5.000600   -0.174600   -0.210100
S     -4.214400    1.330000   -0.088600
C     -2.644500    0.608300   -0.143600
