27

C     -4.252200    2.736300   -0.711300
O     -3.848800    1.985600    0.435500
C     -3.205600    0.821300    0.032400
C     -3.969800   -0.346300   -0.165800
C     -5.385100   -0.576900   -0.039400
C     -5.751100   -1.864900   -0.345600
S     -4.408900   -2.816300   -0.782100
C     -3.301200   -1.510700   -0.544700
C     -1.905700   -1.521400   -0.687300
O     -1.263000   -2.685500   -1.091400
C     -0.811300   -3.410800    0.054400
C     -1.143200   -0.353700   -0.486800
C      0.271700   -0.123200   -0.609900
C      0.657800    1.160700   -0.291400
C      2.000800    1.684900   -0.283500
S      2.370100    3.303200   -0.808100
C      4.060700    3.127100   -0.517200
C      4.312600    1.873700   -0.044900
C      3.167600    1.064800    0.083300
C      3.584000   -0.216100    0.600700
O      2.873300   -1.171400    0.864400
N      4.960800   -0.113100    0.735700
C      5.774300   -1.180000    1.258100
C      5.465400    1.125600    0.380500
O      6.615500    1.526000    0.416300
S     -0.699000    2.104000    0.141800
C     -1.809400    0.808200   -0.106300
