28

C     -4.516500    2.195600    1.162000
O     -3.825800    2.139200   -0.087100
C     -3.159500    0.925000   -0.200800
C     -3.822700   -0.162500   -0.803800
C     -5.148300   -0.266900   -1.354700
C     -5.426400   -1.514200   -1.858100
S     -4.107300   -2.575300   -1.681700
C     -3.130400   -1.368200   -0.922400
C     -1.811700   -1.485500   -0.457500
O     -1.130700   -2.688200   -0.601800
C     -1.298200   -3.481500    0.574300
C     -1.124900   -0.375500    0.072800
C      0.233000   -0.241400    0.529700
C      0.541000    1.020500    0.989400
C      1.810200    1.470600    1.495300
S      1.954100    2.429900    2.929000
C      3.672000    2.493500    2.845300
C      4.118800    1.802300    1.757200
S      5.788300    1.519200    1.151400
C      5.019800    0.614700   -0.161200
C      5.893900    0.024700   -1.171700
C      5.238000   -0.722200   -2.309200
O      7.123700    0.103000   -1.141500
C      3.624900    0.569100   -0.080200
F      2.869200   -0.065100   -0.989700
C      3.066900    1.246100    1.031700
S     -0.810300    2.055800    0.867100
C     -1.817900    0.826300    0.197600
