30

Si    -7.119000   -0.859200    0.526200
C     -5.637300   -1.678700    1.414100
C     -4.466100   -1.116400    1.042300
C     -4.578800   -0.054700    0.082500
C     -5.893900    0.273600   -0.344200
C     -5.970800    1.292500   -1.240500
S     -4.385500    1.877600   -1.579500
C     -3.616200    0.732000   -0.512800
C     -2.209100    0.728200   -0.386800
C     -1.503800    1.678700    0.253000
C     -0.070400    1.410600    0.221600
C      0.413800    0.234700   -0.449300
Si    -1.145100   -0.630600   -1.119700
C      1.825500   -0.139200   -0.545100
C      2.452800   -1.266900   -1.174600
C      1.854000   -2.301600   -1.865200
N      2.837500   -3.177500   -2.308200
C      4.080300   -2.735600   -1.918800
C      3.829600   -1.584300   -1.238200
C      4.754700   -0.718400   -0.621900
C      6.139500   -0.754700   -0.513400
C      6.434600    0.384200    0.209500
O      5.301700    1.082300    0.528800
C      4.236000    0.390100    0.005400
C      2.861100    0.702200    0.065600
C      2.334200    1.836300    0.707100
C      2.994800    2.835200    1.378200
O      2.098800    3.753400    1.853600
C      0.849900    3.339500    1.482900
C      0.946300    2.168900    0.779000
