28

C     -2.592500   -1.930700    2.739900
O     -2.573100   -0.549900    2.374800
C     -2.751900   -0.424400    1.002500
C     -4.059600   -0.292700    0.493600
C     -5.332000   -0.266700    1.165900
C     -6.393300   -0.121300    0.306200
S     -5.883500   -0.011800   -1.314000
C     -4.214800   -0.154700   -0.886100
C     -3.097500   -0.141900   -1.734900
O     -3.271000    0.017200   -3.104300
C     -3.347800   -1.262900   -3.733400
C     -1.788500   -0.193900   -1.216500
C     -0.512100   -0.116900   -1.876900
C      0.563400   -0.201100   -1.018200
C      1.960600   -0.171400   -1.362700
S      2.561700   -0.985900   -2.768200
C      4.191900   -0.520200   -2.475600
C      4.272100    0.240400   -1.345800
S      5.688800    1.012800   -0.553300
C      4.527300    1.619200    0.616300
S      5.230500    2.636100    1.913100
C      6.310100    1.541400    2.797000
O      6.010700    3.656800    1.245400
O      4.107300    2.964700    2.768200
C      3.191300    1.242500    0.393600
C      3.022300    0.417700   -0.752500
S      0.034900   -0.387900    0.593500
C     -1.633400   -0.338900    0.159900
