23

C     -1.891500    1.364500    3.304800
O     -1.482600    0.779900    2.074900
C     -2.470100    0.403600    1.194100
C     -3.837800    0.591800    1.402100
C     -4.758800    0.174900    0.435900
Cl    -6.437100    0.439100    0.757600
C     -4.329800   -0.434600   -0.750500
C     -5.297200   -0.893000   -1.805900
C     -2.951300   -0.619900   -0.952700
C     -2.020300   -0.207900    0.005400
N     -0.625100   -0.368000   -0.142100
C      0.079100   -0.899600   -1.199700
O     -0.410500   -1.358700   -2.227600
C      1.571100   -0.928900   -1.051800
C      2.274800   -1.819900   -1.877100
C      3.662700   -1.925200   -1.792400
C      4.370600   -1.146300   -0.876200
C      3.696900   -0.246300   -0.046100
O      4.303200    0.549300    0.892600
C      5.693200    0.355400    1.118000
C      2.296800   -0.120300   -0.159100
O      1.635300    0.765200    0.663500
C      1.708000    2.089400    0.125900
