24

C     -5.765700   -2.675200   -0.469400
O     -4.412600   -2.570100   -0.042400
C     -3.839200   -1.328000   -0.076200
C     -4.473000   -0.139800   -0.454700
C     -3.765100    1.066200   -0.453900
O     -4.263100    2.290900   -0.805300
C     -5.618100    2.346800   -1.233000
C     -2.424300    1.079300   -0.064100
C     -1.790000   -0.101000    0.334400
C     -0.362600   -0.033400    0.743100
O      0.377500    0.803300    0.233900
N      0.030700   -0.931800    1.727800
C      1.281600   -1.121000    2.274200
S      1.448700   -2.282200    3.463400
N      2.271300   -0.316300    1.791400
C      3.693800   -0.397700    2.102100
C      4.493900    0.773500    1.523300
C      4.636400    0.709300    0.020100
C      5.621600   -0.099200   -0.564600
C      5.744900   -0.173300   -1.953400
C      4.883500    0.556300   -2.770400
C      3.898100    1.359700   -2.199900
C      3.775200    1.437900   -0.811700
C     -2.497400   -1.306600    0.313800
