18

C     -4.098400    2.211600    0.018400
O     -4.278000    0.927000   -0.565400
C     -3.349400   -0.033200   -0.268200
C     -2.225000    0.148000    0.538800
C     -1.347500   -0.924900    0.756100
S      0.070400   -0.676600    1.796800
O      0.704600   -1.952800    2.034600
O     -0.335400    0.191900    2.879700
N      1.064400    0.236000    0.806300
C      1.868600   -0.417200   -0.232900
C      2.104100    0.571200   -1.377900
C      3.482000    1.197000   -1.139600
C      4.005300    0.597900    0.160000
C      3.267700   -0.726200    0.288100
C     -1.586300   -2.182600    0.193500
C     -2.708100   -2.362400   -0.612000
C     -3.574400   -1.293300   -0.837800
F     -4.646000   -1.496100   -1.619000
