21

C     -4.973000   -0.467600   -2.418300
O     -4.209600   -1.315800   -1.572500
C     -3.170000   -0.749400   -0.883900
C     -2.707100    0.556600   -1.071900
C     -1.652300    1.067100   -0.293500
C     -1.036300    0.257400    0.676500
C     -1.501000   -1.048900    0.866100
C     -2.536900   -1.552700    0.075900
O     -2.934600   -2.839900    0.344400
C     -2.565200   -3.716700   -0.720200
C      0.066200    0.797200    1.563700
N      0.778800    1.970700    1.023800
C      1.739100    1.608300   -0.033000
C      2.954700    0.914800    0.525100
C      3.794900    1.337900    1.536500
C      4.849300    0.415000    1.790100
C      4.785400   -0.687600    0.964300
C      5.693100   -1.868400    0.922100
S      3.459400   -0.593400   -0.112400
C     -0.203700    2.964600    0.563900
C     -1.142600    2.465300   -0.544700
