26

Si     6.567400   -1.260300    0.119700
C      5.017600   -2.371500    0.006600
C      3.886300   -1.636100   -0.066700
C      4.081200   -0.213300   -0.043300
C      5.426700    0.235300    0.045500
C      5.584000    1.584800    0.057000
S      4.039800    2.340100   -0.042300
C      3.174200    0.824900   -0.105000
C      1.761200    0.809200   -0.176100
C      0.952200    0.138000    0.676900
C     -0.418900    0.277900    0.313500
O     -1.533100   -0.237400    0.909400
C     -2.584800    0.206900    0.148500
C     -2.148200    0.975300   -0.895000
S     -3.472900    1.546200   -1.870700
C     -4.627700    0.730800   -0.846500
C     -6.035500    0.686600   -0.953200
C     -6.798400   -0.037600   -0.012700
C     -6.099900   -0.705400    1.023100
N     -6.654800   -1.441700    2.004900
S     -5.391400   -2.001800    2.956200
N     -4.079300   -1.331700    2.157700
C     -4.650200   -0.678700    1.159900
C     -3.965800    0.075400    0.168000
C     -0.762500    1.022600   -0.794900
Si     0.766100    1.693200   -1.568600
