20

C     -1.626300   -3.061100    0.183100
O     -1.072800   -1.762700   -0.054000
C     -2.020900   -0.787700    0.101900
C     -3.032000   -0.648800   -0.852100
C     -3.968400    0.380600   -0.732100
C     -3.882600    1.277600    0.333000
Br    -5.151600    2.669900    0.486400
C     -2.866500    1.162200    1.278800
C     -1.931100    0.128600    1.153500
S     -0.634800   -0.011000    2.353800
O     -0.599000    1.220900    3.112700
O     -0.791100   -1.295700    2.998200
N      0.763400   -0.067100    1.420000
C      1.118800    1.150300    0.686800
C      2.289800    0.894600   -0.229800
C      3.595900    0.879700    0.279700
C      4.679800    0.619000   -0.559600
C      4.468100    0.362000   -1.912900
C      3.172800    0.359900   -2.427600
C      2.086800    0.620000   -1.590000
