22

C      6.361100   -1.060300   -0.276100
O      4.997900   -1.215500    0.095900
C      4.293800   -0.100800    0.451200
C      4.858000    1.174200    0.583200
C      4.076900    2.262700    0.986700
C      2.727100    2.081600    1.270700
Br     1.677000    3.551600    1.824800
C      2.145200    0.824800    1.148700
C      2.927600   -0.260900    0.728300
S      2.170500   -1.853700    0.535200
O      2.315000   -2.555300    1.791500
O      2.547600   -2.433600   -0.734800
N      0.514800   -1.508000    0.418500
C     -0.022100   -1.194400   -0.912500
C     -1.329500   -0.410700   -0.784100
C     -2.490500   -1.290100   -0.295900
N     -3.798800   -0.641200   -0.189300
C     -4.343000   -0.115600   -1.452600
C     -4.391800    1.420400   -1.502500
O     -5.152700    2.001900   -0.435400
C     -5.156500    1.205600    0.758300
C     -3.894700    0.340900    0.903400
