16

C      5.243500   -0.165200   -0.871400
O      4.274400    0.810600   -0.510300
C      3.037700    0.350000   -0.151000
C      2.656300   -0.989500   -0.057100
C      1.352500   -1.322800    0.327100
C      0.419600   -0.317000    0.602900
C     -0.931100   -0.710000    1.068600
O     -1.009900   -1.596800    1.919400
N     -2.057000   -0.092300    0.521000
C     -3.354600   -0.325100    1.114200
C     -4.340100   -0.129200   -0.015800
C     -3.655600    0.890400   -0.904600
C     -2.193700    0.568200   -0.714600
O     -1.321900    0.891200   -1.504300
C      0.805300    1.023700    0.536200
C      2.108300    1.350400    0.150900
