19

C     -4.447700    2.430400   -1.381600
O     -4.185900    1.300400   -0.562100
C     -2.912200    0.788500   -0.565500
C     -1.835800    1.354900   -1.260000
C     -0.570100    0.769000   -1.197600
C     -0.377600   -0.377300   -0.424600
C      0.956100   -1.014300   -0.346300
O      1.025200   -2.193000   -0.678900
N      1.992100   -0.263700    0.207300
C      1.813600    0.932000    0.987100
C      3.178700    1.148500    1.608100
N      4.117600    0.351900    0.793400
C      3.368700   -0.438500    0.087400
S      4.025300   -1.603200   -1.010300
C      5.749900   -1.624400   -0.485300
C     -1.447900   -0.970500    0.251700
C     -2.717700   -0.389600    0.188700
O     -3.824500   -0.883500    0.834300
C     -3.723200   -2.178200    1.411800
