22

C      7.184600   -0.475500    0.706200
O      6.590600   -0.007900   -0.498300
C      5.227100   -0.060400   -0.579300
C      4.363000   -0.536100    0.408000
C      2.977600   -0.533500    0.196600
C      2.447400   -0.047200   -1.005200
C      0.983900   -0.024300   -1.278300
O      0.552800    0.031400   -2.428200
N      0.146900   -0.033100   -0.176700
N     -1.214800    0.227600   -0.421200
C     -1.839800    1.128900    0.420100
O     -1.331200    1.517800    1.471800
C     -3.207200    1.578500   -0.053900
C     -4.301800    0.615800    0.335100
C     -4.958200   -0.152700   -0.636800
C     -5.966100   -1.047100   -0.267900
C     -6.321500   -1.177700    1.072900
Cl    -7.562700   -2.280100    1.524800
C     -5.677700   -0.421600    2.049200
C     -4.670400    0.472900    1.681400
C      3.315800    0.415000   -1.999500
C      4.696000    0.410900   -1.782300
