23

C      6.364400    1.236300    1.449900
O      5.857600   -0.071700    1.219000
C      4.534600   -0.172700    0.888600
C      3.628900    0.883100    0.792400
C      2.293600    0.637400    0.444600
C      1.840900   -0.666700    0.195400
C      0.437100   -0.950300   -0.179500
C     -0.572100   -0.371500    0.502800
C     -2.021300   -0.643900    0.171900
C     -2.772600    0.546700   -0.410800
S     -2.211600    1.297400   -1.853700
C     -3.489700    2.422300   -1.850500
C     -4.335100    2.237000   -0.782400
C     -3.934500    1.149400    0.061800
C     -4.687100    0.736200    1.286100
N     -2.061800   -1.873200   -0.596500
N     -3.142400   -2.260700   -1.378900
N     -2.664400   -2.884500   -2.521700
N     -1.396100   -2.928300   -2.483100
C     -1.004000   -2.185900   -1.394200
N      0.222900   -1.802400   -1.243500
C      2.763300   -1.717100    0.278300
C      4.094600   -1.471400    0.627700
