20

C     -4.660800    2.259800   -0.336400
O     -4.164400    0.949900   -0.103100
C     -2.802600    0.777900   -0.078900
C     -1.873400    1.805800   -0.268700
C     -0.502400    1.536100   -0.227000
C     -0.045800    0.235000    0.005100
C      1.418100   -0.065200    0.051800
N      1.826600   -1.272800    0.267500
C      3.166500   -1.568000    0.313900
S      3.653100   -3.164300    0.599300
N      4.046500   -0.526700    0.121700
C      5.430000   -0.545600    0.118200
C      5.992400    0.649000   -0.100000
S      4.791600    1.887500   -0.317200
C      3.509400    0.709800   -0.098400
N      2.261700    0.992300   -0.143000
C     -0.973700   -0.798800    0.195900
C     -2.348300   -0.536600    0.155500
O     -3.323500   -1.487800    0.331700
C     -2.907400   -2.825200    0.570200
