23

C     -3.382300   -3.005800   -2.544000
O     -2.963100   -1.776000   -1.965600
C     -1.670100   -1.701700   -1.513000
C     -0.747400   -2.749900   -1.565300
C      0.556000   -2.575200   -1.088200
C      0.970300   -1.347600   -0.556300
C      2.383500   -1.184900   -0.033200
N      2.409300   -0.974700    1.416200
C      3.673500   -0.260300    1.731700
C      3.630200    0.349300    3.126400
O      4.600400    0.631800    3.812200
O      2.383500    0.649400    3.553200
C      3.872900    0.861100    0.723500
S      3.288900    0.167800   -0.835700
C      0.033000   -0.300600   -0.503600
C     -1.286100   -0.463600   -0.965500
C     -2.281800    0.674600   -0.916800
O     -1.799000    1.768300   -0.130200
C     -2.729000    2.860000   -0.117200
C     -2.237200    4.023000    0.737900
F     -2.071500    3.664200    2.030000
F     -1.065000    4.521100    0.287100
F     -3.139600    5.033900    0.714600
