23

C     -7.184700    0.115300    0.080600
O     -6.284800   -0.984900    0.117700
C     -4.987700   -0.711800    0.453600
C     -4.464900    0.544500    0.758700
C     -3.111300    0.683800    1.086400
C     -2.265300   -0.432000    1.117900
C     -0.803800   -0.279000    1.447500
C      0.063100   -0.212400    0.215100
O      0.701400   -1.154900   -0.239300
O      0.044300    1.034700   -0.329400
C      0.781200    1.178300   -1.543700
C      2.280700    1.403400   -1.326800
O      2.771800    2.522900   -1.448000
N      2.962100    0.252900   -1.004800
C      4.324200    0.090500   -0.758200
C      5.264000    1.109900   -0.854800
C      6.605400    0.825400   -0.585200
C      6.967100   -0.465200   -0.229600
Cl     8.601100   -0.858800    0.110100
C      5.970600   -1.422400   -0.157900
N      4.662500   -1.171500   -0.414400
C     -2.792900   -1.689400    0.803800
C     -4.144200   -1.824200    0.477500
