21

C      5.846000    1.093700    3.110600
O      5.484700    0.056100    2.208500
C      4.238200    0.128900    1.650200
C      3.289500    1.124000    1.885300
C      2.046000    1.077900    1.244300
C      1.735100    0.034500    0.364200
C      0.403800   -0.007600   -0.342400
C      0.479100    0.617800   -1.738000
N     -0.812200    0.632800   -2.396100
C     -1.354300   -0.514600   -2.936600
O     -0.700500   -1.548600   -3.077100
C     -2.784800   -0.410300   -3.449200
S     -3.769900    0.930100   -2.693500
C     -4.061100    0.251900   -1.070700
C     -5.090500    0.769800   -0.293900
C     -5.292600    0.251600    0.983300
C     -4.460600   -0.760000    1.446100
C     -3.455600   -1.210700    0.608400
N     -3.238400   -0.722600   -0.632500
C      2.691500   -0.958900    0.127900
C      3.931200   -0.909800    0.768900
