22

C     -5.737000   -1.176800    1.821500
O     -5.297800   -0.844100    0.511700
C     -3.947900   -0.784600    0.292600
C     -2.973300   -1.064000    1.253000
C     -1.609500   -0.934300    0.950300
C     -1.197400   -0.514100   -0.313800
N      0.148500   -0.348600   -0.680900
C      1.269100   -0.548800    0.096500
O      1.350500   -0.911400    1.261300
C      2.569600   -0.252000   -0.683400
O      2.508500    0.133000   -1.843700
N      3.713800   -0.453100    0.048700
C      5.010700   -0.041400   -0.423700
C      5.281500    1.328200    0.073800
C      5.136100    2.583800   -0.480400
C      5.560500    3.506300    0.505500
C      5.932300    2.756800    1.597300
O      5.766600    1.432900    1.345800
C     -2.167200   -0.240100   -1.281100
C     -3.527100   -0.398400   -0.989000
O     -4.398200   -0.085600   -2.005400
C     -5.128400   -1.231900   -2.440600
