24

C      6.525400    1.296100   -2.609100
O      6.167900    0.274800   -1.687000
C      4.890000    0.302600   -1.202000
C      4.587400   -0.703800   -0.285900
C      3.313400   -0.792300    0.289100
C      2.317500    0.135700   -0.020400
N      1.002700    0.069100    0.477900
C      0.472500   -0.566300    1.627200
N      1.289400   -1.228400    2.483200
C      0.750500   -1.851500    3.554500
C     -0.601900   -1.869200    3.835000
C     -1.454200   -1.210400    2.959900
C     -0.918200   -0.564100    1.836600
C     -1.814200    0.168700    0.906900
O     -1.447800    1.267300    0.502900
N     -2.979500   -0.499500    0.577100
C     -4.031400   -0.032700   -0.239100
C     -5.076400   -0.926600   -0.509500
C     -6.158900   -0.540000   -1.304200
C     -6.208400    0.746000   -1.834300
C     -5.176600    1.642700   -1.568000
C     -4.092800    1.255600   -0.772700
C      2.625800    1.124600   -0.968200
C      3.899300    1.217200   -1.547000
