20

C      3.743300   -0.247300    3.253200
O      2.468100   -0.642900    2.764800
C      2.072800   -0.119900    1.564400
C      2.790900    0.797200    0.795000
C      2.272000    1.251400   -0.420700
C      1.038600    0.781500   -0.874700
O      0.568800    1.273000   -2.066300
C      0.939000    0.396600   -3.133400
C      0.289900   -0.109500   -0.096600
C     -1.020000   -0.584600   -0.505200
N     -1.203500   -1.912400   -0.851000
C     -2.462600   -2.121200   -1.165100
C     -3.017500   -3.437100   -1.580900
S     -3.487100   -0.747500   -1.071100
C     -2.156400    0.206900   -0.547900
C     -2.343900    1.653400   -0.214400
C     -2.320800    1.867800    1.280000
O     -2.418000    1.038100    2.168600
O     -2.213200    3.177300    1.598200
C      0.826000   -0.567300    1.114500
