14

C      3.755700    0.745400   -1.193200
O      3.137300   -0.505000   -0.912000
C      1.841000   -0.472800   -0.481000
C      1.285500   -1.722600   -0.206700
C     -0.034000   -1.842000    0.244800
C     -0.825100   -0.705600    0.433800
O     -2.124800   -0.741200    0.856000
C     -2.611500   -1.966900    1.389300
C     -0.263900    0.546500    0.147500
S     -1.202900    2.027400    0.377900
N     -2.469500    1.858900   -0.712000
O     -0.438400    3.148500   -0.126500
O     -1.777200    2.044400    1.702600
C      1.062700    0.666600   -0.302900
