22

C      5.118800   -1.669600    0.603900
O      4.037500   -1.944200   -0.277900
C      3.082000   -0.974900   -0.408900
C      2.061600   -1.282500   -1.314700
C      1.019100   -0.383900   -1.548500
C      0.983800    0.823500   -0.848200
S     -0.326900    1.990100   -1.165100
O     -0.573400    1.943100   -2.592900
O      0.069800    3.247700   -0.564300
N     -1.689400    1.372500   -0.316400
C     -2.263800    0.151100   -0.849000
C     -2.827700    0.126500   -2.127700
C     -3.356700   -1.058400   -2.644100
C     -3.338200   -2.223100   -1.879700
C     -2.801600   -2.201600   -0.592900
C     -2.268200   -1.020300   -0.073400
O     -1.817900   -1.103100    1.219400
C     -1.168400    0.069700    1.724200
C     -1.759400    1.375000    1.182800
C     -1.174900    2.595500    1.872700
C      2.015000    1.155100    0.036500
C      3.058300    0.250100    0.261200
