23

C      5.285800   -2.579400   -1.851600
O      4.784100   -1.315000   -2.266900
C      4.220300   -0.524800   -1.303800
C      4.045100   -0.866600    0.039200
C      3.447400    0.038400    0.922700
C      3.010700    1.281200    0.455200
S      2.272400    2.443300    1.587200
O      2.505900    3.770600    1.059000
O      2.707900    2.080000    2.919800
N      0.617700    2.099800    1.462700
C     -0.102800    2.493500    0.232200
C     -0.632300    1.270200   -0.505800
C     -1.608800    0.418000    0.346900
N     -3.021200    0.602600   -0.078800
C     -4.035600    0.091900    0.862700
C     -4.103700   -1.435400    0.927400
C     -4.365300   -2.027500   -0.452400
C     -3.380200   -1.477900   -1.477000
C     -3.306100    0.052200   -1.423000
C     -1.370000    0.705800    1.848300
C      0.115100    0.888500    2.140200
C      3.206700    1.642200   -0.878900
C      3.801600    0.731800   -1.754200
