20

C      6.088000   -0.712200   -0.258800
O      5.132900   -0.639100   -1.308800
C      3.943200   -0.010700   -1.048200
C      3.581200    0.512800    0.199500
C      2.340400    1.134200    0.375700
C      1.455600    1.229100   -0.699600
S     -0.118300    2.018200   -0.493000
O     -0.331500    2.863100   -1.646000
O     -0.208800    2.526200    0.856800
N     -1.171900    0.728300   -0.646800
C     -1.406300   -0.171400    0.476800
C     -1.960800   -1.523700   -0.010900
C     -3.273700   -1.663800    0.781800
C     -4.309600   -0.686700    0.201400
C     -3.805300    0.678400    0.689300
C     -2.508300    0.321600    1.439700
C     -2.915900   -0.994600    2.109000
C      1.800200    0.723000   -1.953000
C      3.038800    0.101700   -2.120600
Cl     3.419000   -0.523900   -3.688100
