27

Si    -7.087500   -0.003000   -0.213700
C     -5.881500    1.113000   -1.163400
C     -4.593400    0.822500   -0.875600
C     -4.386100   -0.245400    0.067800
C     -5.589200   -0.840600    0.559900
C     -5.425800   -1.850300    1.450800
S     -3.753400   -2.100700    1.713300
C     -3.249300   -0.828700    0.609300
C     -1.828700   -0.549000    0.400300
C     -1.248600    0.404600   -0.421000
C      0.159600    0.366700   -0.351400
C      1.059300    1.220700   -1.077000
C      0.672100    2.200000   -1.946100
S      2.069900    2.966300   -2.582000
C      3.128300    1.952000   -1.664700
C      2.457200    1.037400   -0.879900
C      3.054200    0.089100   -0.032400
C      4.406900   -0.172400    0.232500
N      5.582200    0.384200   -0.224600
C      6.668000   -0.228700    0.341500
C      6.203800   -1.205700    1.186200
C      4.782000   -1.184300    1.129900
C      3.791900   -1.940900    1.767300
N      2.481300   -1.712400    1.532500
C      2.126100   -0.734500    0.665600
C      0.716500   -0.576200    0.490000
S     -0.587600   -1.445700    1.218400
