18

C     -5.330800   -0.320000    0.512700
O     -4.072600   -0.965600    0.662400
C     -2.969900   -0.287100    0.224900
C     -2.961700    0.981500   -0.342600
C     -1.752900    1.550500   -0.748600
C     -0.541600    0.860300   -0.604400
C     -0.527900   -0.401500   -0.000700
C     -1.758400   -0.964800    0.394200
C      0.689800   -1.201100    0.325300
O      0.558800   -2.370100    0.690000
C      2.068700   -0.658900    0.279700
C      2.990700   -1.138400    1.223300
C      4.307800   -0.680200    1.222800
C      4.714800    0.253300    0.274200
C      3.808200    0.721000   -0.678000
C      2.480700    0.261600   -0.688200
C      1.515000    0.745100   -1.720800
O      0.533900    1.554500   -1.083400
