15

C      3.929900   -0.074300   -0.114700
O      2.735700    0.660200    0.122700
C      1.553300   -0.034300    0.120000
C      1.456000   -1.423600    0.076400
C      0.203500   -2.043500    0.102400
C     -0.979400   -1.294800    0.188300
C     -2.224800   -1.943900    0.240500
C     -3.409600   -1.217600    0.348900
C     -3.364800    0.168500    0.408700
C     -2.134600    0.826800    0.354600
C     -0.914400    0.117600    0.234000
C      0.370100    0.725700    0.176600
C      0.522000    2.195300    0.243000
N      0.117900    3.077400   -0.624400
O     -0.467300    2.474200   -1.743100
