21

C      6.903800   -0.099000    1.186700
O      6.076400    0.342800    0.117100
C      4.729700    0.167300    0.264400
C      4.090300   -0.409100    1.356600
C      2.693500   -0.523700    1.367900
C      1.911300   -0.075600    0.312500
N      0.575000   -0.207100    0.368500
C     -0.226300    0.231600   -0.641300
N     -1.584200    0.073300   -0.399100
C     -1.970600   -1.282500    0.018400
C     -3.227600   -1.233600    0.886800
C     -4.364400   -0.482100    0.186200
C     -5.595700   -0.396600    1.084700
C     -3.882500    0.915900   -0.215300
C     -2.620900    0.848100   -1.078700
C      0.357700    0.808200   -1.775700
C     -0.376200    1.221700   -2.931100
N     -0.942700    1.567600   -3.884400
C      1.754100    0.944100   -1.838400
C      2.556300    0.504500   -0.784800
C      3.958300    0.622700   -0.805600
