18

C      5.545100   -1.765800   -0.971900
O      4.145900   -1.513000   -1.018200
C      3.696000   -0.400500   -0.361500
C      4.476200    0.480600    0.389400
C      3.889900    1.591500    1.002500
C      2.520100    1.819800    0.876500
C      1.727600    0.930500    0.143300
C      0.266500    1.204300    0.032600
O     -0.102100    2.372500    0.017200
N     -0.535900    0.078000   -0.001500
C     -1.939100    0.029300   -0.139200
C     -2.743500    1.149600   -0.345100
C     -4.130600    1.014300   -0.478100
C     -4.734400   -0.245400   -0.420100
C     -6.223700   -0.381300   -0.529000
C     -3.931000   -1.367700   -0.202700
C     -2.545300   -1.231100   -0.070100
C      2.322500   -0.170100   -0.486300
