19

C      5.602600    0.848000   -0.218100
O      4.227800    1.180300   -0.069400
C      3.320700    0.175900   -0.268400
C      3.621900   -1.144500   -0.603900
C      2.595100   -2.075000   -0.779100
C      1.263800   -1.689400   -0.619600
C      0.947300   -0.367200   -0.282900
C     -0.482700    0.007900   -0.121100
N     -1.448800   -0.836700   -0.278500
C     -2.745100   -0.362700   -0.099300
C     -3.824700   -1.233800   -0.257600
C     -5.134700   -0.779100   -0.082500
C     -5.372300    0.553600    0.252900
C     -4.299000    1.429300    0.412600
C     -2.992000    0.959600    0.234000
C     -1.835300    1.847400    0.392500
O     -1.986800    3.027800    0.686700
O     -0.606400    1.313400    0.202100
C      1.984600    0.559600   -0.109100
