24

C     -6.450100    0.222600   -2.280200
O     -5.658600    0.768600   -1.232900
C     -4.560600    0.048200   -0.849300
C     -4.183400   -1.198700   -1.345600
C     -3.033700   -1.826300   -0.860000
C     -2.257300   -1.214300    0.124300
C     -2.621300    0.038500    0.633200
C     -1.797700    0.708700    1.703700
C     -0.401200    1.077600    1.233700
O     -0.189200    1.918600    0.363800
N      0.605300    0.390000    1.900900
N      1.867100    0.359000    1.255300
C      2.788500    1.372600    1.429500
C      2.424300    2.531500    2.323100
N      3.954800    1.367700    0.860700
C      4.282600    0.291000    0.021600
C      5.516900    0.301100   -0.631300
C      5.888900   -0.754200   -1.469800
C      5.026800   -1.834100   -1.662300
C      3.791300   -1.859500   -1.017200
C      3.429300   -0.796000   -0.182700
C      2.134700   -0.789300    0.518300
O      1.378300   -1.759300    0.477400
C     -3.778200    0.658000    0.137000
