15

C     -3.216100    2.172300   -0.879800
O     -2.352200    1.061500   -1.077700
C     -1.505300    0.726300   -0.053400
C     -1.538300    1.311100    1.216500
C     -0.610500    0.940500    2.192100
C      0.363500   -0.014200    1.909200
C      0.414500   -0.625400    0.649800
C      1.496000   -1.643400    0.357900
C      2.662500   -1.062900   -0.439100
C      3.544900   -0.183700    0.403400
O      3.692700   -0.222600    1.613600
O      4.263000    0.680000   -0.342000
C     -0.539700   -0.264700   -0.321000
O     -0.423800   -0.875800   -1.548800
C     -1.613900   -1.559800   -1.938400
