18

C      4.607000    0.783400    2.824300
O      3.414900    0.204200    2.307700
C      2.993400    0.646200    1.083600
C      3.611200    1.624800    0.308100
C      3.061300    1.984100   -0.923400
C      1.893700    1.370300   -1.385700
C      1.264100    0.389900   -0.619800
N      0.085500   -0.279700   -1.006400
C     -0.669400   -0.080300   -2.150500
O     -0.422400    0.710600   -3.057300
C     -1.877400   -1.005100   -2.242100
C     -2.776700   -0.967100   -1.027100
C     -3.351800    0.240000   -0.604700
C     -4.170200    0.275800    0.524700
C     -4.428600   -0.894200    1.237600
C     -3.874300   -2.102100    0.818200
C     -3.055300   -2.140400   -0.311400
C      1.824900    0.035100    0.614200
