17

C     -5.571600    1.426600    0.043800
O     -4.153400    1.499400    0.101200
C     -3.460400    0.340600   -0.123900
C     -4.023800   -0.912100   -0.363900
C     -3.199100   -2.019000   -0.567800
C     -1.811100   -1.875400   -0.534900
C     -1.231200   -0.622700   -0.305300
N      0.177800   -0.561200   -0.271500
C      0.968600    0.566000   -0.267200
O      0.564500    1.712000   -0.440200
N      2.319500    0.306500   -0.066300
C      2.882700   -0.944100    0.453000
C      4.179200   -0.691700    1.229700
O      5.187900   -0.041200    0.448100
C      4.672400    0.905500   -0.500700
C      3.266600    1.417400   -0.175600
C     -2.066000    0.477200   -0.093600
