17

C     -2.234200    0.676900   -3.703800
O     -1.511100    0.387300   -2.515500
C     -2.239200    0.231200   -1.364000
C     -3.626200    0.081800   -1.313000
C     -4.271200   -0.081200   -0.084000
C     -3.540000   -0.094300    1.106600
C     -2.152400    0.055500    1.080000
O     -1.347400    0.044800    2.189800
C     -1.980100    0.256900    3.444300
C     -1.509500    0.196000   -0.162500
O     -0.145300    0.387500   -0.201100
C      0.521800   -0.877000   -0.279700
C      2.042800   -0.653800   -0.351200
N      2.594500   -0.119000    0.902500
C      4.054300   -0.161400    0.954000
C      4.754300    0.814400   -0.001200
O      6.171000    0.708300    0.135100
