18

C     -4.409000    2.503300    0.253000
O     -3.051800    2.102100    0.122700
C     -2.805500    0.770400   -0.068200
C     -3.773200   -0.235300   -0.100800
C     -3.399400   -1.569500   -0.302000
C     -2.056000   -1.912100   -0.470500
C     -1.076900   -0.919400   -0.438300
C      0.332800   -1.229600   -0.606100
C      1.245500   -0.247700   -0.561300
C      2.654100   -0.658900   -0.769600
O      2.962200   -1.172900   -1.845900
N      3.547200   -0.505500    0.282100
C      3.229200    0.093300    1.571900
C      4.958500   -0.746400    0.029500
C      0.870500    1.165700   -0.378800
O      1.699600    2.068700   -0.352200
O     -0.485100    1.426800   -0.210400
C     -1.463500    0.405500   -0.239600
