24

C     -4.401500   -1.808200    1.882500
O     -3.361500   -1.384100    1.009200
C     -3.382900   -0.083600    0.578900
C     -4.341700    0.860200    0.966500
C     -4.281200    2.172900    0.492300
C     -3.261200    2.557800   -0.369600
C     -2.301800    1.627700   -0.763000
C     -2.351800    0.293700   -0.304700
C     -1.282900   -0.703900   -0.741100
C      0.058300   -0.392500   -0.119300
C      1.207100   -0.567100   -0.804400
C      2.510300   -0.228200   -0.183100
C      2.801400   -0.528100    1.155900
C      4.043000   -0.199900    1.711700
C      5.028100    0.417600    0.934600
C      6.347800    0.796700    1.537500
C      4.746100    0.718700   -0.401300
C      3.504700    0.389700   -0.954900
N      1.226600   -1.080200   -2.086500
C      0.074700   -1.110600   -2.676500
N     -0.084600   -1.720600   -3.899400
N     -1.333200   -1.803500   -4.109900
N     -2.013800   -1.309300   -3.011900
N     -1.112700   -0.644700   -2.185400
