20

C     -3.019200    2.154600    1.106100
O     -1.867700    1.365800    0.830800
C     -1.999600    0.329400   -0.053200
C     -3.158600    0.069400   -0.794100
C     -3.190300   -0.973000   -1.726700
C     -2.063200   -1.761700   -1.939200
C     -0.902800   -1.517800   -1.208600
C     -0.874500   -0.488700   -0.254500
C      0.387400   -0.305300    0.484300
N      1.559000   -0.270100   -0.100700
N      2.465200   -0.132300    0.899000
C      3.820400   -0.027900    0.945500
C      4.630100   -0.040400   -0.276700
F      4.322800    0.989500   -1.108800
F      5.961800    0.058400   -0.022800
F      4.462900   -1.184800   -0.991800
N      4.191400    0.073800    2.219900
N      3.049100    0.031900    3.014900
C      2.052900   -0.089500    2.186200
S      0.355800   -0.226000    2.270400
