23

C     -2.632600   -0.415500   -2.062800
O     -2.552700   -0.604700   -0.655900
C     -3.614800   -0.173300    0.094700
C     -4.847600    0.229600   -0.428500
C     -5.872900    0.652300    0.421300
C     -5.674800    0.676500    1.798300
C     -4.452500    0.271000    2.330300
C     -3.417000   -0.165900    1.488000
C     -2.093000   -0.588300    2.089900
C     -1.039200    0.512600    2.009000
O     -1.273500    1.632600    2.474100
N      0.185500    0.216900    1.429900
C      0.581800   -1.106300    0.932800
C      2.065900   -1.193400    0.529400
N      2.403500   -0.119800   -0.417200
C      3.667500   -0.207900   -0.999700
C      4.049700    0.673400   -2.014100
C      5.310900    0.566400   -2.600200
C      6.172900   -0.428600   -2.170700
C      5.726500   -1.276900   -1.176700
N      4.507300   -1.188200   -0.597800
C      1.893000    1.227400   -0.093600
C      1.178700    1.280800    1.271000
