18

C     -3.827700    2.248600    1.583600
O     -2.778500    1.595800    0.880000
C     -3.079200    0.425100    0.234400
C     -4.356500   -0.147700    0.191000
C     -4.580600   -1.338200   -0.505600
C     -3.533300   -1.966000   -1.169900
C     -2.258900   -1.405200   -1.133400
C     -2.010900   -0.213800   -0.423500
C     -0.611300    0.371500   -0.432400
N      0.359600   -0.655000   -0.051100
C      1.716400   -0.322000    0.085800
C      2.282600    0.800400   -0.542800
C      3.651100    1.099400   -0.444200
C      4.215200    2.302200   -1.140500
C      4.486100    0.229200    0.253900
C      3.959400   -0.915200    0.847600
C      2.587900   -1.210200    0.755800
C      2.084300   -2.478600    1.393600
