25

C     -0.120700   -4.592600   -0.061400
O     -0.492500   -3.230900   -0.219100
C     -0.962200   -2.559800    0.880400
C     -1.221400   -3.166000    2.115600
C     -1.754900   -2.424800    3.172600
C     -2.036900   -1.073100    3.007300
C     -1.783200   -0.455700    1.783100
C     -1.245300   -1.185500    0.707300
N     -0.942900   -0.514900   -0.528800
C      0.322000   -0.638600   -1.107800
O      0.522600   -0.648900   -2.323000
N      1.360600   -0.805700   -0.206800
C      2.737300   -0.814600   -0.641500
C      3.380400    0.529100   -0.408400
C      3.079700    1.610800   -1.249300
C      3.655300    2.862400   -1.027800
C      4.534900    3.046900    0.037100
C      4.837200    1.981100    0.883000
C      4.261100    0.728200    0.664200
C     -1.806700    0.403300   -1.098200
N     -1.426200    1.426600   -1.792400
C     -2.593700    2.135200   -2.347500
C     -3.819400    1.892800   -1.475300
C     -3.898300    2.851800   -0.293400
S     -3.542800    0.204500   -0.893800
