21

C      2.416900   -0.199000    3.270100
O      1.761400   -0.304500    2.012400
C      2.538700   -0.651000    0.930100
C      3.913700   -0.902600    0.983700
C      4.609600   -1.245300   -0.177000
C      3.937700   -1.336800   -1.392500
C      2.565100   -1.087800   -1.456600
C      1.855700   -0.747000   -0.302900
N      0.468000   -0.477500   -0.290400
C     -0.427100   -0.533500   -1.344400
O     -0.172300   -0.897800   -2.486500
C     -1.831900   -0.152300   -0.914500
C     -2.813000   -0.110300   -2.098400
C     -4.210100   -0.060300   -1.546600
C     -4.352800    1.160200   -1.012400
C     -3.052200    1.877700   -1.243700
O     -2.695200    1.279400   -2.519300
C     -1.904600    1.314000   -0.401500
C     -2.160700    1.428100    1.068200
O     -2.898100    2.219100    1.629200
O     -1.389600    0.586200    1.788700
