24

C      0.895000   -1.591800   -2.638900
O      0.956600   -1.189400   -1.275800
C      2.167300   -1.335200   -0.636900
C      3.299500   -1.934500   -1.197000
C      4.481900   -2.022900   -0.459800
C      4.537400   -1.516200    0.835800
C      3.411000   -0.918700    1.405100
C      2.222500   -0.824900    0.678800
N      1.042500   -0.239700    1.184300
C      0.840300    0.400100    2.387100
O      1.690200    0.580600    3.257600
C     -0.585200    0.937500    2.591600
N     -1.523300    0.720300    1.485700
C     -2.399100   -0.353500    1.570300
O     -2.402000   -1.147800    2.511700
C     -3.317300   -0.559800    0.361600
C     -2.746900   -1.663600   -0.525200
O     -3.635900    0.557900   -0.450500
C     -2.653000    1.503900   -0.529500
C     -2.780200    2.401000   -1.593500
C     -1.846000    3.417600   -1.769100
C     -0.788800    3.541400   -0.873900
C     -0.669600    2.654600    0.201400
C     -1.604000    1.625300    0.391100
