25

C     -5.112500    2.455100   -1.646700
O     -4.579300    1.346700   -0.931500
C     -5.405300    0.743300   -0.009600
C     -6.722400    1.128400    0.258000
C     -7.471100    0.442100    1.216000
C     -6.909400   -0.628000    1.907600
C     -5.594700   -1.020300    1.647400
C     -4.835300   -0.341700    0.692700
N     -3.501800   -0.677300    0.369800
C     -2.702800   -1.659000    0.925500
O     -3.016700   -2.426900    1.831100
C     -1.324500   -1.723900    0.291600
S     -0.263800   -0.450300    1.028800
C      1.208100   -0.749400    0.161600
N      1.326000   -1.561300   -0.868800
N      2.645200   -1.504200   -1.267800
C      3.245100   -0.659200   -0.453000
C      4.634200   -0.220900   -0.412400
C      5.544000   -0.708500   -1.361800
C      6.882900   -0.305200   -1.346600
C      7.342700    0.586900   -0.373000
C      8.770700    1.046300   -0.371400
C      6.438300    1.088000    0.569200
C      5.098900    0.684700    0.552500
O      2.389400   -0.135700    0.480400
