23

C     -4.738300    0.190200    2.458200
O     -4.254600   -0.689300    1.443800
C     -3.809700   -0.022900    0.328600
C     -4.563700    0.954900   -0.321400
C     -4.057000    1.573100   -1.467200
C     -2.806200    1.208500   -1.969200
C     -2.057600    0.218200   -1.332000
C     -2.566400   -0.406700   -0.194500
N     -1.779200   -1.378100    0.501400
S     -0.665600   -0.773800    1.631800
O     -0.333500   -1.883200    2.502100
O     -1.142400    0.481400    2.172800
C      0.760900   -0.459700    0.622000
C      1.135500    0.854400    0.332100
C      2.263300    1.088700   -0.457900
C      3.025100    0.017100   -0.941700
C      4.194700    0.242200   -1.794300
C      5.349300    0.834300   -1.451500
C      5.698100    1.368400   -0.124300
O      5.041900    1.374100    0.896200
O      6.933800    1.897000   -0.168400
C      2.640000   -1.295900   -0.640700
C      1.512400   -1.537900    0.146800
