26

C      6.556500    0.775100   -0.938200
O      5.370200    0.244300   -0.361600
C      4.236300    0.944800   -0.614600
C      4.113500    2.120600   -1.342500
S      2.474900    2.691300   -1.424700
C      1.968400    1.396600   -0.512600
C      2.976600    0.530000   -0.133500
C      2.435300   -0.637700    0.702300
C      3.017300   -0.642200    2.117200
C      2.652400   -1.982700    0.005900
C      0.950200   -0.238800    0.705100
C     -0.253200   -0.750700    1.242400
C     -1.335700    0.056800    0.902200
C     -2.710800   -0.131000    1.278300
S     -3.144500   -0.473700    2.926600
C     -4.834300   -0.515800    2.580000
C     -5.032000   -0.289500    1.250100
C     -3.848100   -0.081700    0.516800
C     -4.208600    0.110700   -0.866500
O     -3.457300    0.256400   -1.815300
N     -5.595200    0.050700   -0.881400
C     -6.361700    0.161800   -2.094900
C     -6.156000   -0.214200    0.355200
O     -7.327500   -0.370300    0.651400
S     -0.848600    1.429300   -0.042900
C      0.734600    0.927900   -0.001800
