19

C     -5.043800    1.078300    0.880500
O     -3.729700    0.536800    0.848000
C     -3.246100    0.405000   -0.485400
C     -1.800000   -0.011000   -0.413700
C     -1.409600   -1.229800   -0.836200
C      0.012300   -1.668700   -0.751900
O      0.307500   -2.797400   -1.131200
N      0.862100   -0.720400   -0.232400
C      0.480900    0.560000    0.185700
N      1.596100    1.261800    0.637000
C      2.664700    0.345600    0.625300
C      3.976300    0.537000    0.995200
C      4.862900   -0.528800    0.802000
C      4.429800   -1.744700    0.231900
C      3.100600   -1.924000   -0.163600
C      2.240600   -0.865400    0.033000
C     -0.811100    0.933100    0.122200
C     -1.195700    2.240300    0.545100
N     -1.491100    3.313300    0.875900
