19

C     -5.064900    0.425400    1.607600
O     -4.694400    1.105100    0.415800
C     -4.316600    0.227700   -0.640000
C     -2.880600   -0.211500   -0.491100
C     -2.598600   -1.555900   -0.228300
C     -1.278000   -1.949100   -0.072800
C     -0.943500   -3.380900    0.219300
N     -0.246600   -1.081300   -0.168600
C     -0.493400    0.223900   -0.427100
N      0.593300    1.117200   -0.486800
C      1.936200    0.556300   -0.291000
C      2.228300    0.349700    1.200000
C      3.601400   -0.289500    1.423700
C      4.621200    0.059300    0.339000
C      4.359700    1.434600   -0.257200
C      2.970300    1.532500   -0.893900
C     -1.806500    0.694800   -0.588900
C     -2.038800    2.082100   -0.873700
N     -2.212500    3.193200   -1.164900
