28

Si     7.713100   -0.146200   -0.694900
C      6.384000    1.007500   -1.443300
C      5.145500    0.681100   -1.012700
C      5.089500   -0.429500   -0.104300
C      6.331800   -1.045300    0.214500
C      6.249100   -2.105300    1.062500
S      4.599800   -2.364700    1.494200
C      4.029100   -1.041400    0.525900
C      2.633200   -0.692100    0.483600
C      2.088700    0.550400    0.724700
C      0.659300    0.581600    0.590200
C     -0.243200    1.638100    0.756800
N     -1.571400    1.463400    0.579300
C     -2.070700    0.250700    0.234700
C     -1.237900   -0.860200    0.049500
N     -1.632500   -2.116400   -0.296300
C     -2.956700   -2.308900   -0.476800
C     -3.930200   -1.327400   -0.336900
C     -5.326500   -1.646500   -0.555800
C     -6.395500   -0.730900   -0.441500
C     -5.918800    0.519900   -0.089400
C     -6.693300    1.634400    0.103500
N     -5.837400    2.660100    0.439900
C     -4.536300    2.205800    0.460800
C     -4.552900    0.870800    0.134100
C     -3.449700   -0.021400    0.029000
C      0.148000   -0.668600    0.236200
S      1.424800   -1.827000    0.085700
