23

C      5.098200    2.432300   -0.796300
O      4.200100    1.797500   -1.698600
C      4.431400    0.390300   -1.809600
C      3.883000   -0.376700   -0.628700
C      4.744000   -1.225400    0.090300
C      4.262500   -1.972500    1.159300
C      5.200100   -2.871300    1.913700
N      2.982600   -1.953100    1.572000
C      2.173100   -1.136900    0.868100
S      0.526400   -1.034400    1.276200
C      0.211700    0.110900    0.041000
C     -1.119100    0.679300   -0.148000
O     -1.353700    1.590200   -0.942400
N     -2.126300    0.128600    0.624600
C     -3.526600    0.477400    0.447300
C     -4.133700   -0.298000   -0.729500
C     -5.622900   -0.003500   -0.890600
C     -6.391800   -0.261800    0.401500
C     -5.792800    0.507300    1.575100
C     -4.304900    0.210400    1.740400
C      1.365800    0.392500   -0.670200
N      1.402700    1.272000   -1.702500
C      2.523800   -0.330700   -0.208600
