24

C     -0.516700   -4.100500    4.331000
O     -0.043600   -3.044800    3.505700
C     -1.112700   -2.196900    3.079900
C     -0.615400   -1.160300    2.099800
C      0.603100   -0.539000    2.282700
C      0.955900    0.403100    1.343600
S      2.520600    1.250400    1.501700
C      2.964900    1.423000   -0.235400
C      2.752500    2.634700   -0.921500
Cl     2.068800    4.037000   -0.162700
C      3.082500    2.761400   -2.277400
C      3.632500    1.687300   -2.971100
C      3.857000    0.483400   -2.308400
C      3.527600    0.348800   -0.953600
Cl     3.854800   -1.193700   -0.229400
N      0.167400    0.739100    0.310100
C     -1.011800    0.105900    0.213500
C     -1.911000    0.495600   -0.892500
C     -3.069700   -0.244200   -1.197500
C     -3.932900    0.141100   -2.229400
C     -3.655300    1.277600   -2.983400
C     -2.514000    2.025500   -2.711200
C     -1.652800    1.636300   -1.679500
N     -1.437000   -0.836500    1.075800
