16

C      4.837000    1.677300   -0.720900
O      4.568300    0.719600    0.297000
C      4.074300   -0.519000   -0.225100
C      2.614600   -0.395800   -0.511800
N      2.093000   -0.253200   -1.714500
N      0.716900   -0.162400   -1.670700
C      0.250700   -0.242500   -0.443300
N     -1.094800   -0.180700   -0.182100
C     -1.710500   -0.222700    1.051500
O     -1.112000   -0.299900    2.119700
C     -3.173800   -0.154200    0.976100
C     -4.034600   -0.348100   -0.093400
C     -5.406300   -0.181400    0.264800
C     -5.557300    0.127100    1.596100
S     -4.057900    0.208000    2.407800
S      1.448400   -0.444400    0.748600
