19

C      6.207800    1.200300   -0.387300
O      5.738500   -0.073100   -0.810600
C      4.672400   -0.576200   -0.005700
C      3.335100    0.027900   -0.420800
C      2.181500   -0.613500    0.345400
N      0.927300    0.012500   -0.060300
C     -0.207600   -0.470000    0.594000
N     -0.114500   -1.243900    1.695600
C     -1.245700   -1.692300    2.273300
N     -2.510700   -1.472000    1.894700
C     -2.603500   -0.678900    0.804100
C     -1.490800   -0.172000    0.150800
N     -1.951700    0.608400   -0.880200
C     -3.327600    0.591600   -0.930800
C     -4.209400    1.226800   -1.813000
C     -5.579200    1.028200   -1.611500
C     -6.046000    0.229800   -0.569100
C     -5.150500   -0.395400    0.305500
C     -3.764900   -0.213600    0.122700
