26

Si     0.542900   -0.479600   -0.881800
C      1.720700    0.319800    0.384600
C      0.984600    0.866200    1.386400
C     -0.474100    0.719800    1.264600
C     -1.414800    1.187400    2.150000
N     -2.738600    1.008000    1.959500
C     -3.173700    0.337700    0.848500
C     -2.272200   -0.177500   -0.114900
N     -2.655500   -0.842500   -1.221700
C     -3.973200   -1.021700   -1.412400
C     -4.947700   -0.563400   -0.540200
C     -6.314900   -0.775800   -0.783800
C     -7.255600   -0.299600    0.116400
C     -6.793500    0.371900    1.227400
N     -5.484600    0.587800    1.481900
C     -4.542200    0.131200    0.615300
C     -0.926100    0.033200    0.127300
C      3.192700    0.351300    0.308400
C      3.996300    0.979400    1.316800
C      5.433000    1.061600    1.330900
C      6.256200    0.522500    0.331700
C      5.487900   -0.086400   -0.646700
C      6.015000   -0.702300   -1.751400
N      4.953700   -1.178800   -2.476600
C      3.764300   -0.870700   -1.842100
C      4.048100   -0.181900   -0.683500
