21

C      6.485500   -0.550500   -1.062700
O      6.044400    0.755200   -0.696500
N      5.718700    0.705000    0.665000
C      4.359600    0.757100    0.895900
N      3.420900    0.364400    0.102700
C      2.142700    0.511900    0.566200
O      1.828400    0.939600    1.671000
N      1.245700    0.090800   -0.381200
O     -0.039000   -0.255500    0.108900
C     -0.948300    0.805600   -0.207500
C     -2.368600    0.340100    0.009900
N     -3.051600    0.932100    1.032600
C     -4.320500    0.528800    1.270500
C     -4.974900   -0.437500    0.524400
C     -6.373300   -0.837900    0.873000
F     -7.063500   -1.340400   -0.188100
F     -7.121900    0.196500    1.345100
F     -6.413000   -1.799400    1.834200
C     -4.266600   -1.032700   -0.524900
C     -2.953400   -0.642000   -0.791900
Cl    -2.134600   -1.386200   -2.114100
