21

C     -6.170400    2.282900   -0.004800
S     -4.701200    1.665800    0.836000
C     -4.037100    0.673000   -0.414200
N     -4.790200    0.031800   -1.251500
C     -3.862600   -0.664000   -2.162700
C     -2.494600   -0.550000   -1.525600
N     -2.666200    0.480800   -0.535700
C     -1.626600    1.089400    0.160300
O     -1.689900    2.146600    0.772800
C     -0.292000    0.456700    0.066500
C      0.742900    1.150400   -0.572000
C      2.005800    0.565500   -0.675900
C      2.229900   -0.695800   -0.111500
S      3.828000   -1.470500   -0.292200
O      4.451000   -0.888200   -1.462500
O      3.617000   -2.900100   -0.191500
N      4.673600   -0.949100    1.088500
C      4.234400   -1.484400    2.388200
C      5.055000    0.473300    1.143900
C      1.196500   -1.388000    0.533500
C     -0.066700   -0.802500    0.635100
