17

C     -2.951900    2.319800    1.067300
S     -1.680000    1.297300    1.859100
C     -2.026100   -0.280500    1.062100
C     -3.286100   -0.872300    1.228200
C     -3.578600   -2.089300    0.614900
C     -2.613000   -2.723100   -0.161500
C     -1.347700   -2.150400   -0.320200
C     -1.035600   -0.934600    0.294300
N      0.231300   -0.312700    0.181500
C      1.356000   -0.777500   -0.467900
O      1.479200   -1.850600   -1.046000
C      2.536500    0.129700   -0.415800
C      2.404600    1.519200   -0.400700
C      3.561600    2.277000   -0.359300
N      4.804000    1.749900   -0.336900
C      4.901800    0.403500   -0.372700
C      3.809500   -0.441800   -0.416200
