25

Si     5.695800    0.542400    1.249000
C      4.358100    1.894600    1.033000
C      3.176300    1.362300    0.650500
C      3.178100   -0.062800    0.494500
C      4.402800   -0.733400    0.756400
C      4.364600   -2.084100    0.595200
S      2.777900   -2.559700    0.105200
C      2.180300   -0.933000    0.126900
C      0.780600   -0.674600   -0.228900
C      0.479100   -0.555300   -1.591200
C     -0.787000   -0.269800   -2.046300
N     -0.919300   -0.182600   -3.376800
C     -2.112800    0.125300   -3.921100
C     -3.205800    0.414300   -3.109600
C     -4.543000    0.807600   -3.391200
C     -5.170500    1.017200   -2.190500
N     -4.260900    0.764400   -1.199400
C     -3.055900    0.329700   -1.719500
C     -1.825500   -0.081900   -1.098400
C     -1.570900   -0.282200    0.319200
C     -2.566600   -0.269200    1.332300
C     -2.275900   -0.425300    2.690300
C     -0.970000   -0.621700    3.091500
C      0.031100   -0.691700    2.128500
C     -0.239300   -0.546100    0.743800
