20

F     -0.013500   -1.908500    1.265700
B     -0.127100   -1.125000    0.030200
N      0.865400    0.016600   -0.015300
C      2.140500    0.044000    0.021900
C      3.257900   -0.770200    0.110100
C      4.351700    0.080200    0.087100
C      5.791900   -0.324600    0.158000
O      3.930100    1.316700   -0.007900
C      2.615500    1.343000   -0.049900
C      1.600500    2.197500   -0.137700
C      0.401600    1.356200   -0.118400
C     -0.857800    1.686600   -0.178800
F      0.061900   -2.036100   -1.112400
N     -1.562400   -0.631600   -0.046400
C     -1.885600    0.650900   -0.141500
C     -3.252000    0.802700   -0.193300
C     -4.029300    2.044300   -0.299500
C     -3.788300   -0.465900   -0.125400
C     -2.711400   -1.323900   -0.035500
C     -2.870000   -2.802600    0.057900
