17

F     -3.403400    0.414200    0.819900
B     -2.410700    0.458100   -0.248800
N     -1.816600   -0.942100   -0.346200
C     -2.347000   -2.105100   -0.557700
C     -1.352600   -3.160000   -0.561400
C     -0.195000   -2.569000   -0.340700
C     -0.421500   -1.113000   -0.189500
C      0.385200   -0.100300    0.038600
N      1.774000   -0.351000    0.184600
C      2.687400    0.109300   -0.835800
C      2.233100   -1.057300    1.346300
F     -3.119600    0.832900   -1.457900
N     -1.363000    1.522800    0.016500
C     -0.054100    1.285200    0.153900
C      0.609000    2.473300    0.385400
C     -0.351900    3.449800    0.383700
C     -1.582200    2.867600    0.154900
