17

F     -3.066000   -0.282300    1.733500
B     -2.416400    0.006300    0.443800
N     -1.645200   -1.220700    0.022400
C     -0.319200   -1.253400   -0.228600
C      0.027400   -2.532300   -0.584600
C     -1.173900   -3.283300   -0.535500
C     -2.165600   -2.477200   -0.169100
F     -3.521100    0.261800   -0.495800
N     -1.533500    1.237000    0.555800
C     -0.200900    1.240500    0.311900
C      0.480700   -0.013600   -0.095800
N      1.737900    0.011300   -0.314300
C      2.616500    1.164300   -0.215700
C      2.449000   -1.215500   -0.706500
C      0.284900    2.507400    0.506300
C     -0.809100    3.321600    0.889400
C     -1.876000    2.492200    0.899600
