18

F     -3.498800    0.849700    1.250100
B     -2.636600    0.744900    0.048500
N     -1.383800    1.546300    0.326900
C     -0.164100    1.033300    0.399600
C      0.722500    2.040300    0.663300
C      0.012600    3.239100    0.758800
C     -1.282800    2.906500    0.547400
F     -3.403900    1.336700   -1.039300
N     -2.376400   -0.726000   -0.157300
C     -1.156500   -1.226400   -0.082200
C      0.053900   -0.393000    0.202500
N      1.144500   -1.014900    0.253900
C      2.448200   -0.486600    0.519100
C      3.117500    0.112100   -0.652900
C      4.286500   -0.323800   -1.133000
C     -1.285100   -2.602800   -0.319300
C     -2.608500   -2.917500   -0.538600
C     -3.286500   -1.736300   -0.435500
