15

F     -0.284600   -1.400400   -1.761100
B     -0.151900   -1.109100   -0.361600
F     -0.503400   -2.217700    0.494400
N      1.267200   -0.602500   -0.110800
C      2.549700   -1.216000   -0.273800
C      3.639500   -0.550600    0.019400
Br     5.345900   -1.374700   -0.200300
C      3.534100    0.820800    0.513500
C      2.403100    1.454900    0.691100
C      1.161500    0.716500    0.364200
N     -0.060200    1.084000    0.440500
N     -0.971900    0.136100    0.052700
C     -2.270600    0.213700    0.019800
C     -2.880200    1.496600    0.457700
C     -3.104500   -0.904400   -0.426300
