20

F     -6.649200   -0.067500   -0.021100
C     -5.327800   -0.127500    0.186900
C     -4.847200   -0.550400    1.419600
C     -3.467400   -0.614500    1.641200
C     -4.456100    0.233400   -0.830800
C     -3.077500    0.169800   -0.610700
C     -2.562900   -0.254900    0.627700
C     -1.115800   -0.316500    0.844000
N     -0.228700    0.021000   -0.106500
N      0.969500   -0.178000    0.499400
C      2.200000    0.064600   -0.168100
C      3.416000   -0.154400    0.496100
C      4.625900    0.085200   -0.163300
C      4.628900    0.543500   -1.485500
C      5.870900    0.788300   -2.159100
N      6.875900    0.986600   -2.704600
C      3.415900    0.762000   -2.148100
C      2.203100    0.524000   -1.493500
N      0.921000   -0.622400    1.780600
C     -0.392900   -0.707800    1.992200
