20

F     -7.264600   -1.011300   -0.407300
C     -5.996700   -0.608300   -0.255600
C     -5.736600    0.650600    0.270500
C     -4.413500    1.075700    0.430700
C     -4.959500   -1.452900   -0.625500
C     -3.637300   -1.029500   -0.466000
C     -3.344700    0.240200    0.064200
C     -1.954200    0.670300    0.225500
N     -0.914400   -0.107700   -0.116500
N      0.164800    0.658100    0.190600
C      1.494100    0.205800   -0.018500
C      1.729300   -1.065100   -0.556600
C      3.041800   -1.501200   -0.758500
C      4.126900   -0.683700   -0.429800
O      5.352900   -1.235900   -0.679400
C      6.491300   -0.444900   -0.362600
C      3.890700    0.583000    0.106500
C      2.579200    1.028900    0.312600
N     -0.106800    1.883600    0.710100
C     -1.440000    1.884800    0.729300
