23

Si     6.325800   -0.347400    0.609000
C      5.157800   -1.855100    0.585700
C      3.860900   -1.477100    0.548000
C      3.635700   -0.058500    0.538000
C      4.802600    0.757700    0.550100
C      4.573800    2.097200    0.510100
S      2.876300    2.383000    0.450700
C      2.479500    0.689600    0.501600
C      1.103800    0.260000    0.506700
C      0.531500   -0.859600    1.142000
C     -0.833100   -0.791300    0.810000
O     -2.028100   -1.429400    0.990900
C     -2.923600   -0.664400    0.299000
C     -4.261300   -0.518700   -0.069300
N     -5.344900   -1.272000    0.211200
C     -6.481000   -0.782900   -0.343400
C     -6.579900    0.369200   -1.128200
C     -5.439400    1.131200   -1.403200
C     -4.259800    0.652400   -0.846500
O     -3.001100    1.218500   -0.967200
C     -2.273000    0.357000   -0.248400
C     -1.002700    0.290800    0.054900
N      0.114700    0.980300   -0.168400
