18

F     -6.291700    1.036500   -0.318700
C     -5.019200    0.715200   -0.052600
C     -4.726300   -0.049800    1.069100
C     -3.398400   -0.387800    1.350800
C     -4.010300    1.150200   -0.900400
C     -2.683300    0.813200   -0.620100
C     -2.357700    0.039700    0.508900
C     -0.962500   -0.305600    0.789800
N      0.050800    0.089700    0.002300
N      1.145900   -0.435300    0.612500
C      2.456000   -0.252000    0.097500
C      2.653300    0.489900   -1.076300
C      3.943700    0.667700   -1.579600
C      5.036500    0.108900   -0.917000
C      4.844600   -0.629600    0.250600
C      3.557500   -0.812300    0.760700
N      0.907900   -1.146100    1.745800
C     -0.418300   -1.060600    1.851300
