20

F     -6.995500   -0.445600    1.836300
C     -5.809600   -0.331400    1.224500
C     -5.765300   -0.156200   -0.154500
C     -4.530700   -0.036700   -0.796700
C     -4.642400   -0.389800    1.978600
C     -3.403400   -0.271200    1.344900
C     -3.344000   -0.093900   -0.047300
N     -2.085900    0.027300   -0.696200
N     -0.915300   -0.022500   -0.010500
C      0.012100    0.127600   -0.970800
C     -0.660100    0.262100   -2.205300
N     -1.981600    0.199700   -2.038500
C      1.447800    0.136600   -0.685600
C      2.393500    0.294900   -1.706700
C      3.762300    0.300800   -1.413500
C      4.214800    0.149800   -0.101900
O      5.574000    0.174400    0.041000
C      6.084100    0.024200    1.360100
C      3.283300   -0.008300    0.921400
C      1.912500   -0.014500    0.630000
