18

F      6.302000    0.163100   -1.489400
C      5.048900    0.046700   -1.031300
C      3.987500    0.457600   -1.830500
C      2.679000    0.338000   -1.357000
C      4.830200   -0.483300    0.235800
C      3.525100   -0.606600    0.717600
C      2.443600   -0.195500   -0.079000
N      1.114200   -0.319000    0.406800
N      0.041100    0.065800   -0.329700
C     -1.000500   -0.211800    0.472300
C     -0.490500   -0.758700    1.670200
N      0.840700   -0.828600    1.634900
C     -2.388000    0.044600    0.081600
C     -3.455200   -0.256300    0.941800
C     -4.776300   -0.006100    0.555800
C     -5.047900    0.547300   -0.693100
C     -4.000800    0.851700   -1.558500
C     -2.680700    0.602100   -1.173600
