23

F     -1.704100    3.475200   -0.491000
C     -2.681300    2.529600   -0.572300
C     -2.183900    1.149400   -0.210100
C     -3.024900    0.227500    0.433600
C     -2.575900   -1.066000    0.744400
C     -3.495000   -2.065100    1.407900
F     -4.178500   -2.818800    0.505600
F     -4.437500   -1.473300    2.193700
F     -2.836700   -2.941200    2.215300
C     -1.267500   -1.432100    0.389600
C     -0.405100   -0.525600   -0.242700
C      0.943000   -0.957300   -0.606800
N      1.234100   -2.097100   -1.211300
N      2.592200   -2.158800   -1.413200
C      3.121300   -1.071300   -0.902300
N      2.122900   -0.278300   -0.350800
C      2.390100    0.919600    0.318500
C      3.660300    1.349700    0.414400
C      4.722800    0.554300   -0.181800
C      4.462300   -0.608300   -0.810800
C     -0.879300    0.755600   -0.554200
F     -3.687400    2.964100    0.234900
F     -3.160800    2.590600   -1.843000
