28

Si     6.768600    0.286800   -0.579500
C      5.472700   -0.685800   -1.597500
C      4.223000   -0.485900   -1.123700
C      4.137500    0.386700    0.011600
C      5.360300    0.931500    0.488900
C      5.240000    1.762700    1.559100
S      3.576200    1.890400    2.001300
C      3.056100    0.815000    0.744700
C      1.642900    0.512800    0.612500
C      0.676200    1.453400    0.207400
C     -0.701300    1.105200    0.072800
S     -1.986700    2.132900   -0.411200
C     -3.182100    0.885300   -0.278700
C     -2.617100   -0.330200    0.135600
C     -3.484500   -1.422400    0.280300
N     -4.813500   -1.324800    0.034400
C     -5.345900   -0.164000   -0.359400
C     -6.704800   -0.091300   -0.603100
C     -7.262100    1.108700   -1.011700
N     -6.553300    2.239900   -1.193100
C     -5.226500    2.161600   -0.952800
C     -4.579200    0.990600   -0.537100
C     -1.215000   -0.158500    0.321300
C     -0.251300   -1.146900    0.742900
C     -0.394100   -2.462800    1.076200
N      0.873300   -2.897800    1.412300
C      1.779900   -1.865100    1.285600
C      1.096600   -0.747100    0.856600
