26

F      5.169800    2.395600   -0.413800
C      5.801200    1.221000   -0.257400
C      5.065500    0.036400   -0.094400
C      3.591500    0.026800   -0.097600
C      2.860700    0.653500   -1.117200
C      1.459800    0.634800   -1.124100
C      0.735600   -0.011500   -0.110800
C     -0.738100   -0.021000   -0.114200
C     -1.474700   -1.202300    0.051800
F     -0.843800   -2.377100    0.209500
C     -2.871100   -1.210100    0.048600
C     -3.594800   -0.022800   -0.121600
C     -5.066800   -0.022600   -0.126300
C     -5.794900   -0.610900    0.921500
C     -7.192500   -0.610800    0.917700
C     -7.886900   -0.022600   -0.136000
C     -7.185400    0.565500   -1.185100
C     -5.787700    0.565500   -1.179300
C     -2.867900    1.166300   -0.286000
C     -1.466200    1.167700   -0.281900
C      1.466500   -0.638200    0.908800
C      2.867400   -0.619400    0.915600
C      5.793500   -1.156400    0.070600
C      7.192900   -1.157700    0.074600
C      7.894500    0.034800   -0.086600
C      7.196200    1.227400   -0.253600
