19

F      4.538800    1.128900    0.064200
C      3.373300    0.465400    0.050800
C      2.177700    1.182000    0.025400
F      2.179900    2.520700    0.014100
C      0.996100    0.476300    0.012200
C      1.006300   -0.970100    0.024500
C     -0.371700   -1.417900    0.005900
N     -1.148500   -2.472400    0.002200
C     -2.456600   -1.933100   -0.023600
C     -2.438000   -0.547500   -0.035000
N     -1.115200   -0.294000   -0.015600
C     -0.421000    0.892100   -0.014400
C     -1.161800    2.011400   -0.035800
C     -2.636000    1.839600   -0.058300
C     -3.246800    0.622100   -0.057900
C      2.190700   -1.668600    0.049600
F      2.214000   -3.006400    0.061300
C      3.379400   -0.939300    0.062800
F      4.552300   -1.589400    0.087300
