16

F      0.849800    1.014400    2.126700
C      1.476400    0.508200    1.053100
C      0.734700    0.005700   -0.029200
C     -0.739400   -0.001900   -0.030200
C     -1.466800    0.496500   -1.124000
C     -2.865900    0.481600   -1.132700
C     -1.466500   -0.510700    1.057700
C     -2.865400   -0.527300    1.052000
C     -3.576000   -0.043200   -0.049600
C     -5.075400   -0.027700   -0.041700
C      1.457100   -0.495400   -1.125000
C      2.852100   -0.488600   -1.123800
F      3.499300   -0.970000   -2.194600
C      3.578900    0.003900   -0.038800
C      5.075600    0.027100   -0.075100
C      2.873800    0.515500    1.053500
