23

F     -2.703400   -0.500100    2.400900
C     -3.454700   -0.355300    1.298100
C     -2.860100    0.009800    0.078600
C     -1.407700    0.233700   -0.046000
C     -0.487400   -0.715900    0.433500
C      0.871100   -0.473500    0.288800
C      2.027900   -1.348000    0.728400
C     -0.908000    1.409700   -0.660100
C      0.466000    1.647900   -0.803100
C      1.351000    0.699800   -0.326300
C      2.798100    0.666100   -0.328800
C      3.724500    1.575400   -0.807300
C      5.085000    1.275900   -0.669600
C      3.224300   -0.530500    0.285300
C      4.568700   -0.835800    0.426600
C      5.514300    0.073200   -0.068100
C      6.981300   -0.201600    0.094500
C     -3.708300    0.155500   -1.031500
C     -5.082000   -0.057000   -0.912700
F     -5.854200    0.101100   -1.997100
C     -5.660900   -0.428900    0.301700
C     -7.142000   -0.621700    0.409100
C     -4.830700   -0.567300    1.416800
