26

Si     5.888300   -1.053000    1.073200
C      4.190300   -1.858900    1.382200
C      3.184300   -1.100900    0.892200
C      3.591400    0.122600    0.256900
C      4.993300    0.372000    0.228300
C      5.362300    1.532400   -0.375600
S      3.955800    2.355500   -0.931700
C      2.868500    1.129800   -0.347100
C      1.436900    1.243500   -0.518400
C      0.719200    2.262100   -1.127800
C     -0.636200    1.870200   -1.017500
S     -2.248400    2.424500   -1.441900
C     -2.909400    1.027200   -0.731100
C     -4.384700    0.596800   -0.608400
O     -5.518600    1.216300   -1.031600
C     -6.558900    0.401100   -0.666400
C     -6.109300   -0.733900   -0.014200
C     -4.725500   -0.579500    0.006400
C     -3.686200   -1.402500    0.533300
N     -3.941600   -2.555400    1.141800
S     -2.397500   -3.112100    1.561900
N     -1.427900   -1.865000    0.956300
C     -2.307600   -1.021900    0.430500
C     -1.961400    0.198900   -0.208100
C     -0.672100    0.675300   -0.369500
O      0.582500    0.268300   -0.052400
