18

F     -6.204200    0.551700   -0.060600
C     -4.905700    0.240300   -0.166900
C     -4.298400   -0.511200    0.831700
C     -2.945200   -0.835400    0.723000
C     -2.200000   -0.411000   -0.389700
C     -0.731500   -0.747900   -0.501300
S      0.294300    0.539500    0.280300
C      1.901600   -0.125000   -0.008800
N      2.079800   -1.292800   -0.658400
C      3.343600   -1.731500   -0.838400
N      4.483700   -1.148900   -0.448600
C      4.280100    0.012700    0.196200
N      5.257400    0.824000    0.706400
C      4.614000    1.837200    1.243800
N      3.259700    1.710400    1.099800
C      3.025400    0.542300    0.428000
C     -2.832500    0.353900   -1.384000
C     -4.185800    0.676400   -1.272400
