28

N      8.619000    2.512600    1.964400
C      7.722300    2.180200    1.305700
C      6.585600    1.761700    0.552000
C      5.423400    1.558900    1.208000
C      4.136300    1.158900    0.672200
C      3.059300    0.968300    1.452200
C      1.736000    0.572300    0.946700
C      1.574900   -0.324100   -0.115500
C      0.296200   -0.698800   -0.546000
C     -0.856100   -0.195500    0.079200
N     -2.174000   -0.580600   -0.365400
C     -3.230500    0.402000   -0.428500
C     -4.539600    0.084400   -0.024800
C     -5.561600    1.035500   -0.084700
C     -5.292600    2.320300   -0.550300
C     -4.003100    2.655700   -0.956000
C     -2.980700    1.704900   -0.895200
C     -2.436900   -1.948000   -0.748300
C     -1.898600   -3.021400   -0.016300
C     -2.153200   -4.344500   -0.387000
C     -2.949800   -4.617100   -1.496400
C     -3.492700   -3.568900   -2.235500
C     -3.238900   -2.245800   -1.864400
C     -0.685000    0.691800    1.154200
C      0.593200    1.065400    1.585900
C      6.752000    1.567800   -0.907600
O      5.995100    0.998100   -1.672900
O      7.892400    2.109900   -1.373100
