21

N     -0.548100    2.389700    0.608400
C     -0.470300    1.317900    0.169500
C     -0.394300    0.014200   -0.389200
C      0.501000   -0.905700    0.025300
C      1.502600   -0.728300    1.062600
C      2.352300   -1.706400    1.415800
C      3.384900   -1.562100    2.452700
C      4.620400   -2.197100    2.269400
C      5.618800   -2.107300    3.242700
C      5.387700   -1.391000    4.414900
C      4.157600   -0.768900    4.616600
C      3.159000   -0.858200    3.643100
C     -1.339300   -0.391800   -1.482000
O     -1.323100   -1.523000   -1.962400
N     -2.216300    0.569100   -1.920900
C     -3.086300    0.313300   -3.047800
C     -4.098400    1.393100   -3.122700
C     -5.477600    1.405300   -3.097900
C     -5.867200    2.762800   -3.199400
C     -4.704000    3.491400   -3.278300
O     -3.624100    2.669800   -3.232000
