17

N      5.772100    0.334700   -1.108200
C      4.647800    0.248500   -0.833400
C      3.261200    0.139000   -0.485800
C      2.396400   -0.623600   -1.275300
C      1.043700   -0.729700   -0.935000
C      2.766200    0.796100    0.644400
C      1.413100    0.689500    0.983700
C      0.538300   -0.076700    0.198300
C     -0.888700   -0.194700    0.554500
C     -1.229700   -0.684400    1.761700
C     -2.687900   -0.783300    2.036800
N     -3.648400   -0.450200    1.233700
C     -3.265500    0.037900    0.017100
N     -4.014800    0.447400   -0.982900
C     -3.111200    0.821100   -1.925700
N     -1.829200    0.673600   -1.597500
N     -1.912000    0.169600   -0.337400
