23

N      4.402600   -2.414200   -3.236300
C      3.771300   -1.688300   -2.586700
C      2.986200   -0.797600   -1.783700
C      1.974200   -0.031600   -2.371300
C      1.196500    0.823200   -1.585000
C      3.230400   -0.690600   -0.410600
C      2.451400    0.164400    0.373900
C      1.413000    0.905200   -0.204000
C      0.598400    1.787200    0.626500
N      1.042200    2.940800    1.100300
C      0.001100    3.503300    1.780300
C     -1.098200    2.683800    1.750700
N     -0.718300    1.547200    1.031300
C     -1.599000    0.454600    0.843400
C     -1.242400   -0.793800    0.153200
C     -1.684900   -1.033600   -1.155000
C     -1.352000   -2.224100   -1.803800
C     -0.585400   -3.185900   -1.147400
C     -0.157900   -2.963800    0.160900
C     -0.490300   -1.774800    0.812700
C     -2.846300    0.537100    1.357900
C     -3.258400    1.727700    2.079100
C     -2.416700    2.757600    2.271700
