20

N     -1.891700   -2.148100   -1.990300
C     -1.732800   -1.284300   -1.228800
C     -1.554700   -0.142000   -0.279000
C     -0.061000    0.200300   -0.136700
C      1.001500   -0.613800   -0.290800
O      0.810500   -1.947100   -0.559600
N      2.315400   -0.172400   -0.189700
C      2.492800    1.197100   -0.093200
N      1.544500    2.044700    0.123800
C      0.293200    1.558200    0.386800
O     -0.535700    2.202300    1.019300
S      4.063800    1.929600   -0.371500
C      5.169800    0.631000    0.186800
C      4.741200   -0.701300   -0.386000
C      3.389100   -1.108000    0.171300
C     -2.396600    1.033700   -0.888700
C     -3.595500    1.441000   -0.029000
C     -4.421600    0.228200    0.373100
C     -3.611100   -0.818000    1.135200
C     -2.098700   -0.577800    1.106900
