23

N      0.181700    3.705900    1.333400
C      0.352800    2.931200    0.483700
C      0.570100    1.887400   -0.562100
N      0.987000    2.465500   -1.867700
C      2.178800    3.145500   -2.115800
C      2.993800    3.724000   -1.138600
C      4.145200    4.445600   -1.481700
C      4.490700    4.626100   -2.816200
C      3.676500    4.095900   -3.808400
C      2.529400    3.377000   -3.457700
C     -0.812200    1.206800   -0.783500
C     -0.670600   -0.257800   -1.182000
N      0.078400   -1.047200   -0.207700
C     -0.704200   -2.085200    0.478000
C     -1.840000   -1.585400    1.389100
C     -2.587700   -2.734600    2.022700
C     -3.685600   -3.313100    1.371500
C     -4.364200   -4.387100    1.949200
C     -3.950100   -4.894600    3.179200
C     -2.856200   -4.329900    3.832300
C     -2.175800   -3.255800    3.256600
C      0.957300   -0.288800    0.678700
C      1.618400    0.858600   -0.079800
