21

N      3.329600    1.652700   -1.101800
C      2.580600    1.038700   -0.462800
C      1.703500    0.249500    0.339600
C      2.202500   -0.530700    1.324300
N      3.533700   -0.705300    1.619800
O      1.364300   -1.257500    2.165000
C      0.010900   -0.963300    2.206800
C     -0.571500   -0.201800    1.267800
C     -2.009800    0.161600    1.409400
O     -2.544800    0.890200    0.576200
C     -2.761900   -0.325100    2.629400
C     -2.217900   -1.658000    3.118600
C     -0.715000   -1.581800    3.365700
C      0.203000    0.351900    0.094600
C     -0.210500   -0.406800   -1.195500
C     -0.030700    0.396200   -2.462500
C     -0.873400    1.485000   -2.729200
C     -0.713100    2.235300   -3.894400
C      0.287200    1.903200   -4.805300
C      1.124500    0.818000   -4.553900
C      0.964900    0.064200   -3.390100
