17

N      5.870400    1.137800    1.946100
C      4.820100    0.972200    1.481100
C      3.518700    0.765200    0.916100
C      2.392700    1.336400    1.517600
C      1.121900    1.134900    0.967200
C      0.960700    0.351100   -0.183700
C      2.097600   -0.200900   -0.790800
C      3.368700   -0.001700   -0.242500
C     -0.350800    0.135300   -0.790800
N     -0.626700    0.288500   -2.075500
N     -1.959100    0.018600   -2.279200
C     -2.476900   -0.327600   -1.123500
N     -1.495000   -0.297100   -0.141300
C     -1.736100   -0.674500    1.182900
C     -2.973700   -1.057400    1.542500
C     -4.029100   -1.068000    0.540900
C     -3.788000   -0.720100   -0.738200
