23

N     -6.127500    1.844000   -2.169800
C     -5.003100    1.655000   -1.953700
C     -3.616500    1.414100   -1.677800
C     -3.249000    0.551800   -0.631200
C     -1.897300    0.288300   -0.327300
C     -0.926300    0.928200   -1.120000
C     -1.292400    1.790600   -2.166800
C     -2.634100    2.033800   -2.446100
C      0.481600    0.682100   -0.838100
N      1.496300    1.205600   -1.489600
C      2.609200    0.701300   -0.888600
C      3.950100    0.959300   -1.220100
C      4.965800    0.348000   -0.487100
C      4.648800   -0.507200    0.560300
C      3.315800   -0.776200    0.905400
C      2.286500   -0.160600    0.167000
N      0.889200   -0.163600    0.188100
C     -0.063300   -0.837500    1.021600
C     -1.450000   -0.616800    0.770300
C     -2.374600   -1.287400    1.599700
C     -1.963200   -2.135600    2.628300
C     -0.612200   -2.336800    2.856000
C      0.333400   -1.692400    2.058300
