17

N      5.421400    0.934500    1.208000
C      4.398000    0.734700    0.698700
C      3.129300    0.487700    0.075000
C      1.977300    0.387300    0.872400
C      0.781300    0.149400    0.229100
C      0.722900    0.009800   -1.210000
C     -0.659200   -0.230700   -1.574400
N     -1.471300   -0.444000   -2.580600
C     -2.739600   -0.578400   -1.966500
C     -2.660200   -0.441300   -0.589200
N     -1.341500   -0.227500   -0.413400
C     -0.602000   -0.013000    0.725800
C     -1.285600   -0.010500    1.881500
C     -2.750400   -0.238100    1.795800
C     -3.407800   -0.443500    0.620600
C      1.850300    0.107700   -1.993300
C      3.063300    0.349500   -1.336000
