21

N      2.469400   -2.621200    2.294900
C      2.938100   -1.863400    1.550400
C      3.566500   -0.950400    0.635700
C      4.968800   -0.958400    0.552100
C      5.632400   -0.086400   -0.310400
C      4.901300    0.799800   -1.094600
C      3.507000    0.814000   -1.017300
C      2.814400   -0.058200   -0.155500
C      1.345300   -0.001400   -0.114100
C      0.566700   -1.020000   -0.674600
C     -0.837500   -0.971000   -0.628400
C     -1.499700    0.127000   -0.046800
C     -0.715500    1.159700    0.502000
C      0.688000    1.083500    0.477500
C     -1.371100    2.346300    1.162100
C     -2.790100    2.548100    0.650200
C     -3.557300    1.238500    0.741000
N     -2.886200    0.192100   -0.018800
C     -3.691900   -0.831800   -0.672300
C     -3.013400   -2.190900   -0.608200
C     -1.629400   -2.101300   -1.234400
