20

N     -2.407500    0.396800   -2.859800
C     -2.492700    0.929500   -1.831300
C     -2.662900    1.612100   -0.577700
C     -3.719300    2.535200   -0.480000
C     -3.970100    3.206400    0.716000
C     -3.170600    2.959400    1.826300
C     -2.118300    2.044500    1.739600
C     -1.842600    1.361600    0.539900
C     -0.723300    0.424100    0.517600
C     -0.201200   -0.470100    1.434000
C      0.924000   -1.078500    0.819200
C      1.871100   -2.047100    1.174700
C      2.855300   -2.379900    0.249800
O      3.847100   -3.294200    0.429000
C      4.579900   -3.308300   -0.715900
C      4.072400   -2.412800   -1.630100
C      2.950500   -1.802200   -1.012300
C      2.003700   -0.832800   -1.366400
C      1.021100   -0.499700   -0.440500
O      0.033900    0.417200   -0.617800
