17

N      0.653400   -2.524100    2.721700
C      1.256700   -1.612600    2.330600
C      2.037900   -0.505000    1.856200
C      3.320700   -0.317800    2.396400
C      4.118900    0.745400    1.973800
C      3.643000    1.628300    1.009100
C      2.368700    1.450000    0.466500
C      1.548800    0.385900    0.882600
C      0.221200    0.230300    0.277700
C     -0.249900   -0.784600   -0.528200
C     -1.616200   -0.601500   -0.928500
C     -2.453000   -1.404600   -1.740100
C     -3.771900   -1.018500   -1.997000
C     -4.275100    0.157200   -1.457800
C     -3.473400    0.969200   -0.652300
C     -2.145200    0.576100   -0.396200
S     -0.982500    1.409000    0.561700
