25

Si    -5.373800    0.235100    2.305100
C     -6.662900   -0.966400    1.658900
C     -6.227600   -1.693000    0.613700
C     -4.844500   -1.389000    0.208100
C     -4.181200   -2.012000   -0.844700
C     -2.852400   -1.619100   -1.121800
S     -1.851900   -2.266300   -2.384900
C     -0.556900   -1.227000   -1.918300
C      0.780400   -0.927800   -2.304100
C      1.221400    0.048200   -1.428200
N      0.197900    0.354400   -0.562800
C     -0.884400   -0.437400   -0.860800
C     -2.208300   -0.630100   -0.364200
C     -2.894700   -0.003400    0.704400
C     -4.205600   -0.395400    0.972800
C      2.511300    0.741300   -1.368800
C      2.835500    1.597400   -2.432600
C      4.024600    2.318600   -2.424800
C      4.903900    2.191400   -1.352600
C      4.614800    1.334900   -0.279100
C      5.519800    1.214000    0.789000
C      5.260400    0.357700    1.858000
C      4.094100   -0.395000    1.870800
C      3.183300   -0.284300    0.817900
C      3.410100    0.586500   -0.275700
