22

N     -1.617100    2.776000    2.954600
C     -2.158400    1.771200    2.741800
C     -2.862600    0.544400    2.489500
C     -3.994400    0.259700    3.271600
C     -4.709900   -0.921200    3.078800
C     -4.300200   -1.826100    2.105200
C     -3.176100   -1.550400    1.323500
C     -2.437800   -0.363400    1.496500
C     -1.260400   -0.124300    0.645100
C     -1.245900    0.896700   -0.304800
C     -0.118300    1.101900   -1.104100
C      1.034800    0.287500   -0.988000
C      1.011200   -0.751100   -0.029600
C     -0.119400   -0.932900    0.756900
N      2.036600   -1.588500    0.167200
C      3.143200   -1.420900   -0.586700
C      3.299500   -0.441600   -1.560000
C      4.489900   -0.336400   -2.303600
C      4.634900    0.648900   -3.275800
C      3.593600    1.535400   -3.511900
C      2.408400    1.435000   -2.775600
C      2.223800    0.444200   -1.777700
