22

N      3.054300   -1.777800   -2.588700
C      3.348500   -1.147700   -1.659100
C      3.749900   -0.376300   -0.515200
C      5.095400    0.014900   -0.419100
C      5.536200    0.774200    0.664100
C      4.637300    1.148800    1.657500
C      3.297700    0.763800    1.569200
C      2.829200   -0.005100    0.486600
C      1.407900   -0.384000    0.442300
C      1.006600   -1.712000    0.670000
C     -0.344600   -2.068800    0.633900
C     -1.308800   -1.099000    0.373900
C     -0.927800    0.221600    0.150200
C      0.420300    0.580800    0.184100
O     -1.840700    1.213500   -0.108100
C     -3.153500    0.815100   -0.135600
C     -4.117600    1.787200   -0.398800
C     -5.467000    1.431400   -0.437200
C     -5.848400    0.106700   -0.212900
C     -4.881200   -0.865000    0.050500
C     -3.534300   -0.507300    0.088400
O     -2.621200   -1.497400    0.351100
