15

N     -1.213900   -1.954100    2.621400
C     -1.434900   -1.304000    1.685200
C     -1.751900   -0.512100    0.529000
C     -3.084800   -0.482600    0.088000
C     -3.442300    0.262500   -1.035600
C     -2.472100    0.981400   -1.726800
C     -1.144900    0.957600   -1.293900
C     -0.761100    0.214300   -0.161900
C      0.653300    0.223100    0.256500
C      1.042800    1.053700    1.325400
C      2.373400    1.119400    1.737800
C      3.338700    0.370600    1.075100
C      2.970600   -0.455600    0.012500
C      1.629500   -0.579000   -0.378300
N      1.335200   -1.336700   -1.528500
