14

N     -0.224800    3.388900   -0.533900
C      0.358000    2.387300   -0.464400
C      1.125100    1.178600   -0.334000
C      2.525900    1.274900   -0.370200
C      3.318100    0.138100   -0.213300
C      2.718400   -1.101900   -0.017900
C      1.326100   -1.206300    0.019300
C      0.505500   -0.072000   -0.137900
C     -0.950500   -0.224800   -0.105900
C     -1.648500   -0.534600    1.054400
C     -3.030500   -0.661500    0.987200
C     -3.642000   -0.479100   -0.236900
N     -2.948100   -0.189600   -1.354100
N     -1.589000   -0.059500   -1.286300
