28

Si     1.630400   -0.548500    0.066000
C      2.530400    1.088100   -0.115800
C      1.644600    2.103200   -0.196600
C      0.232200    1.691100   -0.124600
C     -0.833900    2.553200   -0.186300
N     -2.117600    2.143400   -0.117300
C     -2.439400    0.833800    0.019300
C     -3.839300    0.523500    0.081100
N     -4.749500    1.526500    0.002000
C     -6.076200    1.270100    0.056800
C     -6.612200    0.009700    0.193300
C     -5.729700   -1.052000    0.278800
C     -4.334800   -0.805300    0.223500
C     -3.313700   -1.781900    0.297400
C     -3.564700   -3.128800    0.436200
S     -2.121300   -4.042800    0.494600
C     -1.156500   -2.632200    0.333700
C     -1.903300   -1.479800    0.236300
C     -1.380200   -0.150200    0.093200
C     -0.032300    0.314500    0.017400
C      3.949800    1.214700   -0.159700
S      4.725400    2.801100   -0.334100
C      6.331100    2.180800   -0.308100
C      6.246000    0.849200   -0.174200
O      7.300300   -0.008500   -0.112400
C      6.620600   -1.200900    0.020800
C      5.227200   -1.065200    0.038100
C      4.978200    0.320400   -0.093700
