13

N      0.823100    3.229900    0.872500
C      0.870500    2.223500    0.296000
C      0.951000    0.998100   -0.447300
C      1.946300    0.893800   -1.433900
C      2.090400   -0.277800   -2.177100
C      1.242800   -1.355300   -1.940800
C      0.250500   -1.262000   -0.962500
C      0.090100   -0.087900   -0.204900
C     -0.966000   -0.043000    0.792300
C     -1.996100    0.896900    1.024800
N     -2.782600    0.551300    2.047700
N     -2.247700   -0.598800    2.485600
C     -1.165200   -1.005200    1.759800
