21

N      2.083100    0.555800   -2.962700
C      2.359500    0.377900   -1.849800
C      2.723300    0.119600   -0.484100
C      3.952500   -0.510700   -0.233100
C      4.351900   -0.787200    1.073900
C      3.527700   -0.436300    2.138400
C      2.303800    0.191000    1.897300
C      1.879200    0.478500    0.586700
C      0.588400    1.135800    0.389600
C      0.393800    2.506500    0.562900
N     -0.780800    3.159400    0.409600
C     -1.878700    2.450900    0.052400
C     -1.803600    1.065600   -0.142100
C     -0.570600    0.432500    0.031600
N     -0.772600   -0.908800   -0.210400
C     -2.083900   -1.159000   -0.534100
C     -2.726400   -2.353400   -0.852900
C     -4.079800   -2.234000   -1.129400
N     -4.775900   -1.076500   -1.106400
C     -4.126300    0.073100   -0.797400
C     -2.757100    0.061200   -0.500800
