17

N     -1.282700    3.215000    1.480100
C     -1.541700    2.578100    0.545000
C     -1.875300    1.814900   -0.624100
C     -2.938700    2.261100   -1.426100
C     -3.328200    1.537700   -2.553800
C     -2.665300    0.359800   -2.885200
C     -1.606500   -0.090300   -2.094300
C     -1.187500    0.636500   -0.965300
C     -0.070200    0.104300   -0.179500
N     -0.091900   -1.057300    0.436100
C      1.123600   -1.283700    1.060700
C      1.456100   -2.412400    1.836900
C      2.728000   -2.512900    2.410200
C      3.668800   -1.506000    2.218100
C      3.364700   -0.377300    1.450600
C      2.084100   -0.286700    0.880400
S      1.419600    0.957200   -0.106500
