22

N     -5.775400   -2.415100    2.427200
C     -4.877900   -1.777700    2.056900
C     -3.774400   -0.985100    1.611800
C     -2.460700   -1.185300    1.973800
N     -1.699900   -0.229300    1.347700
C     -0.260300   -0.097100    1.511100
C      0.494500   -0.887300    0.462500
O      0.552800   -2.114900    0.483700
N      1.109100   -0.125900   -0.511600
C      1.940400   -0.731100   -1.530000
C      3.390800   -0.641000   -1.156100
C      4.207100    0.399400   -1.610500
C      5.541800    0.451000   -1.217500
C      6.016800   -0.538900   -0.373300
N      5.257600   -1.552100    0.094100
C      3.965400   -1.582000   -0.306300
C     -2.504700    0.596000    0.584500
C     -2.197600    1.703600   -0.223900
C     -3.245900    2.345900   -0.891000
C     -4.557900    1.903800   -0.758000
C     -4.857400    0.802100    0.050300
C     -3.819300    0.134100    0.734300
