29

Si    -5.261800   -0.216400    0.848500
C     -5.580600   -0.735500    2.600100
C     -4.444300   -0.945400    3.280000
C     -3.219200   -0.718900    2.491300
C     -1.963200   -0.890100    3.037800
C     -0.857100   -0.658800    2.235200
C     -0.998700   -0.254800    0.881000
C      0.200400   -0.047800    0.157100
N      1.520200   -0.171800    0.542300
C      2.393000    0.125800   -0.478700
C      1.593000    0.452400   -1.556700
C      0.216200    0.348000   -1.173400
C     -1.020100    0.554300   -1.836800
C     -0.960100    0.957600   -3.193200
C     -2.117000    1.183600   -3.924400
C     -3.341000    1.009200   -3.308900
C     -3.403700    0.609700   -1.965400
C     -2.260500    0.360900   -1.157800
C     -2.265400   -0.057800    0.248500
C     -3.380700   -0.311000    1.124700
C      3.848500    0.071400   -0.330900
C      4.737600    0.379500   -1.386300
C      6.148000    0.333900   -1.267000
C      6.805600   -0.024400   -0.080400
C      5.976000   -0.346000    1.019000
N      6.407400   -0.711500    2.235500
S      5.055200   -0.976200    3.156300
N      3.856400   -0.640500    2.058400
C      4.467100   -0.300900    0.904000
