17

N     -2.921600    1.002600   -2.374900
C     -2.743500    0.054100   -1.730600
C     -2.573200   -1.123700   -0.949500
C     -3.539200   -2.107900   -0.966900
N     -3.481200   -3.234400   -0.225800
C     -2.407900   -3.357200    0.566100
N     -1.411600   -2.468300    0.671000
C     -1.500600   -1.361700   -0.109200
C     -0.361800   -0.455700    0.071200
C      0.139400    0.056600    1.251100
C      1.286500    0.898100    1.067000
C      2.064700    1.613900    2.008100
C      3.155200    2.380800    1.587000
C      3.487400    2.446000    0.241000
C      2.740200    1.746700   -0.709600
C      1.642300    0.975800   -0.280600
S      0.592800    0.028500   -1.261500
