20

N     -1.318300   -1.490200   -3.907500
C     -1.851500   -0.759100   -3.181000
C     -2.538300    0.139900   -2.320200
C     -3.763500    0.642900   -2.712900
N     -4.501300    1.500200   -1.978100
C     -3.973900    1.858100   -0.802600
N     -2.797100    1.437200   -0.316100
C     -2.085100    0.574000   -1.088200
C     -0.821500    0.193800   -0.440100
C      0.238500   -0.636700   -0.792900
C      1.192800   -0.607100    0.251400
N      2.389400   -1.236300    0.393400
C      3.044400   -0.962400    1.554500
C      4.281900   -1.406500    2.063300
C      4.427400   -0.793000    3.289500
O      3.356900    0.002600    3.570000
C      2.508900   -0.099100    2.510000
N      1.324900    0.537000    2.393000
C      0.705000    0.242900    1.233200
N     -0.498300    0.714000    0.807200
