23

N      5.378900    0.443900   -0.575200
C      4.686600    1.277200   -0.991100
C      3.867200    2.311000   -1.527900
C      4.449100    3.454700   -2.036800
N      3.753400    4.494000   -2.541200
C      2.421100    4.364500   -2.517500
N      1.748000    3.305800   -2.045200
C      2.481300    2.270100   -1.558600
C      1.669800    1.141700   -1.064000
C      1.874100   -0.171200   -1.495200
C      1.091800   -1.217400   -0.993300
C      0.068600   -1.001800   -0.050700
C     -0.177200    0.314400    0.355000
C      0.630400    1.361900   -0.145600
C     -1.250100    0.668300    1.351400
C     -2.608000    0.090600    0.975800
C     -2.768800   -1.337200    1.426600
C     -3.929800   -1.673200    2.154900
C     -4.158100   -2.975600    2.592100
C     -3.231700   -3.965100    2.302200
C     -2.086500   -3.645200    1.570800
C     -1.835300   -2.335000    1.112000
N     -0.651600   -2.129200    0.380200
