22

N     -1.520600   -4.211500    2.746500
C     -2.145200   -3.236900    2.668900
C     -2.934200   -2.053100    2.602500
C     -4.254600   -2.084600    3.003900
N     -5.083700   -1.022400    2.950900
C     -4.550400    0.105100    2.465200
N     -3.286800    0.251300    2.041100
C     -2.474200   -0.835100    2.124800
C     -1.099600   -0.588100    1.647800
C      0.026800   -0.895700    2.422700
C      1.316600   -0.659400    1.937000
C      1.515000   -0.091400    0.672100
C      0.405400    0.265700   -0.107000
C     -0.884300   -0.002800    0.385600
N      0.536700    0.804900   -1.399600
C      1.736000    1.182600   -2.030800
C      1.674200    1.761300   -3.309200
C      2.837100    2.111900   -3.997700
C      4.080800    1.874100   -3.423000
C      4.159600    1.279800   -2.163500
C      2.995700    0.924000   -1.464600
S      3.197600    0.158100    0.135000
