28

Si     5.803000   -0.783600   -0.052600
C      6.625600    0.904100    0.026200
C      5.742800    1.917000    0.038200
C      4.336100    1.485700   -0.012800
C      3.260100    2.365400   -0.010100
C      1.957400    1.861600   -0.060800
C      1.721100    0.468600   -0.114800
C      0.384400   -0.013600   -0.166300
N     -0.842300    0.625700   -0.178300
C     -1.885700   -0.283800   -0.227300
C     -1.326800   -1.550900   -0.260800
C      0.053900   -1.350600   -0.219000
C      1.086500   -2.329500   -0.225700
N      0.831600   -3.628200   -0.274300
S      2.366400   -4.293900   -0.258000
N      3.302100   -2.909200   -0.188600
C      2.459400   -1.851800   -0.174500
C      2.816200   -0.452700   -0.118000
C      4.125000    0.083500   -0.066200
C     -3.272100    0.139800   -0.251600
C     -3.794300    1.042000   -1.209600
C     -5.162800    1.463900   -1.245300
C     -6.145300    1.032400   -0.328400
C     -5.624700    0.147500    0.616500
C     -6.394600   -0.397400    1.613900
S     -5.463500   -1.428000    2.625400
C     -4.026900   -1.140900    1.723400
C     -4.248100   -0.290400    0.664300
