22

N     -3.055100   -0.438900   -3.465000
C     -3.459100   -0.325000   -2.383400
C     -3.994100   -0.186600   -1.070900
C     -5.359200   -0.235500   -0.873900
N     -5.952900   -0.077700    0.326800
C     -5.127300    0.144800    1.357100
N     -3.790500    0.218600    1.284700
C     -3.227000    0.037100    0.062100
C     -1.756500    0.117900    0.066700
C     -1.108700    1.248600    0.569200
C      0.286500    1.324700    0.581800
C      1.091300    0.264300    0.100600
C      0.434100   -0.886000   -0.391300
C     -0.954600   -0.936900   -0.396600
N      1.085900   -1.955300   -0.861400
C      2.435000   -1.921300   -0.868800
C      3.204000   -0.855100   -0.418800
C      4.610000   -0.901000   -0.461500
C      5.369600    0.172900   -0.006800
C      4.731300    1.299100    0.493300
C      3.334000    1.350000    0.537700
C      2.527000    0.275700    0.083400
