22

N      2.737400    3.156600   -0.682700
C      3.215200    2.101200   -0.618900
C      3.832400    0.821000   -0.528700
C      5.207900    0.721700   -0.472800
N      5.876600   -0.448100   -0.415600
C      5.117400   -1.550800   -0.423900
N      3.778100   -1.575900   -0.480400
C      3.137300   -0.378700   -0.521000
C      1.667600   -0.490600   -0.572200
C      1.052200   -1.280700   -1.562700
C     -0.338800   -1.407200   -1.630600
C     -1.136300   -0.750300   -0.699400
C     -0.548600    0.024100    0.297000
C      0.840800    0.152200    0.366100
O     -1.291000    0.683300    1.244800
C     -2.651000    0.534800    1.138500
C     -3.447200    1.192000    2.075300
C     -4.836500    1.071400    2.009200
C     -5.425000    0.295100    1.008300
C     -4.625600   -0.362000    0.071200
C     -3.238500   -0.239700    0.139100
O     -2.495100   -0.903800   -0.804000
