21

N     -3.530900   -0.740600   -0.876900
C     -2.790300   -0.838300    0.010700
C     -1.909400   -0.959100    1.123000
C     -2.388800   -0.873700    2.412500
N     -1.611000   -0.982500    3.510000
C     -0.306800   -1.193600    3.284600
N      0.270100   -1.288800    2.078500
C     -0.544400   -1.164300    1.001200
C      0.133900   -1.292700   -0.289800
C      0.243800   -2.565000   -0.889100
C      0.839500   -2.723700   -2.128900
C      1.340900   -1.617700   -2.806200
C      1.250400   -0.342200   -2.211800
S      1.812900    1.122700   -2.911200
C      1.328600    2.037300   -1.573200
N      1.539600    3.370900   -1.560100
C      1.129500    3.988400   -0.438600
C      0.540400    3.363000    0.641600
C      0.339700    1.985200    0.584500
C      0.738500    1.271300   -0.573000
C      0.667900   -0.139400   -0.952000
