14

N      1.662800   -3.190100   -0.081500
C      1.649000   -2.042600    0.091800
C      1.718700   -0.645900    0.373100
C      2.879100   -0.138800    0.927500
N      3.050400    1.151000    1.281000
C      2.002300    1.951800    1.069300
N      0.827600    1.574400    0.544900
C      0.688800    0.265100    0.180400
C     -0.621100   -0.063200   -0.420200
C     -1.779000    0.663700   -0.151600
C     -2.972900    0.307000   -0.770700
C     -2.959600   -0.761800   -1.640700
N     -1.837700   -1.455100   -1.902300
N     -0.663300   -1.098200   -1.289000
