13

N     -0.284700    3.352300    0.578400
C     -0.694300    2.278600    0.419400
C     -1.225700    0.971500    0.240600
C     -2.595000    0.790800    0.257200
N     -3.203200   -0.398600    0.073300
C     -2.389200   -1.438500   -0.141000
N     -1.051500   -1.383900   -0.181600
C     -0.474700   -0.169400    0.019000
C      0.983400   -0.193500   -0.027700
C      1.979700    0.604800    0.583200
N      3.219400    0.211800    0.276800
N      3.028000   -0.850500   -0.519000
C      1.712300   -1.135700   -0.728800
