20

N     -3.217000    1.121700    2.632900
C     -2.907500    1.568000    1.607400
C     -2.599800    2.177600    0.356700
C     -3.373500    3.226700   -0.095900
N     -3.165200    3.869800   -1.263500
C     -2.135200    3.431800   -1.996700
N     -1.317900    2.426500   -1.662000
C     -1.561100    1.803200   -0.476400
C     -0.638800    0.708700   -0.154300
N     -0.610000   -0.080200    0.907200
C      0.454200   -0.912200    0.678600
C      0.994500   -1.958000    1.431000
C      2.099000   -2.616700    0.908100
O      2.794500   -3.656700    1.450100
C      3.767600   -3.904500    0.526400
N      3.754500   -3.128800   -0.537300
C      2.689800   -2.296700   -0.308200
C      2.148000   -1.250500   -1.059300
C      1.043700   -0.592600   -0.535500
O      0.349500    0.445700   -1.076800
