20

N     -2.863500   -2.527100   -1.389600
C     -3.059800   -1.479200   -0.930400
C     -3.404800   -0.209500   -0.381000
C     -4.736600    0.147700   -0.305700
N     -5.178800    1.320000    0.193400
C     -4.234400    2.158900    0.631400
N     -2.916600    1.923000    0.609700
C     -2.506100    0.729400    0.099000
C     -1.041000    0.514500    0.096400
N     -0.443800   -0.572000   -0.351100
C      0.928600   -0.473400   -0.219700
C      1.866300   -1.443900   -0.593700
C      3.229100   -1.215300   -0.404700
S      4.575800   -2.223600   -0.769700
C      5.628700   -1.017400   -0.163500
N      5.063100    0.078000    0.290100
C      3.688900   -0.023600    0.157200
C      2.748400    0.945300    0.530300
C      1.386200    0.715000    0.340600
S      0.040800    1.717300    0.702800
