20

N     -0.395400   -0.393300    4.492400
C      0.454900   -0.684500    3.758300
C      1.566500   -1.086400    2.962300
C      2.661800   -1.664600    3.569700
N      3.763400   -2.079500    2.907600
C      3.752200   -1.900800    1.581900
N      2.751200   -1.353000    0.877700
C      1.662500   -0.950600    1.590600
C      0.618300   -0.364800    0.746900
N     -0.553500    0.120000    1.125600
C     -1.162900    0.548000   -0.022900
N     -2.383700    1.121600   -0.146700
C     -2.725500    1.443800   -1.418100
N     -3.884000    2.029900   -1.851300
C     -3.739300    2.134400   -3.157000
N     -2.535100    1.639900   -3.586600
C     -1.868900    1.192000   -2.486800
N     -0.647500    0.624000   -2.408600
C     -0.350800    0.321500   -1.128000
N      0.769800   -0.255300   -0.623200
