19

N     -1.800700   -4.042400   -0.908800
C     -1.158200   -3.102200   -0.676300
C     -0.400100   -1.932100   -0.382100
N      0.972700   -1.922500   -0.497300
C      1.299200   -0.695300   -0.141200
C      2.623700   -0.082500   -0.063700
C      2.802400    1.253000    0.335900
C      4.082000    1.812500    0.400700
C      5.186800    1.039400    0.066500
F      6.411700    1.576800    0.129100
C      5.037900   -0.282700   -0.331600
C      3.758900   -0.842000   -0.396400
O      0.234500    0.095000    0.199600
C     -0.868200   -0.704100    0.043700
N     -2.069800   -0.151900    0.317900
C     -2.222200    1.193800    0.853100
C     -3.668700    1.225200    1.341100
C     -4.374000    0.269800    0.391400
C     -3.344800   -0.840500    0.189000
