19

N      6.445000    0.674400    2.538500
C      5.623500    1.441500    2.249200
C      4.569700    2.406400    1.944900
C      3.651600    1.861200    0.876600
O      3.808700    2.191300   -0.295300
N      2.685700    1.018000    1.376100
C      1.708100    0.420800    0.635300
N      1.518100    0.607600   -0.698500
C      0.480000   -0.146500   -0.970500
N      0.053300   -0.751800    0.169300
C     -1.014100   -1.725100    0.329000
C     -2.291100   -1.315600   -0.364400
C     -2.651800   -1.952300   -1.566900
C     -3.816200   -1.590300   -2.246800
C     -4.638400   -0.589300   -1.737800
C     -4.298200    0.049800   -0.546600
C     -3.133400   -0.309500    0.137800
Cl    -2.782800    0.521800    1.609800
N      0.842100   -0.417100    1.211500
