21

N     -5.755200    1.777600    1.861700
C     -5.621400    1.191200    0.714800
C     -4.360400    0.520700    0.297600
C     -3.124300    1.071400    0.667600
C     -1.969000    0.407300    0.233900
C     -2.010100   -0.755400   -0.531300
C     -3.261400   -1.290100   -0.893400
C     -4.430300   -0.641000   -0.476100
C     -0.663400   -1.141200   -0.772000
C      0.176400   -0.216900   -0.174000
C      1.637000   -0.155500   -0.114800
C      2.312300    1.072900   -0.159200
C      3.709700    1.123200   -0.101500
C      4.446500   -0.059600    0.001700
C      5.932300   -0.022000    0.052400
N      6.663700   -1.007600   -0.539300
N      6.589300    0.927400    0.638100
C      3.785600   -1.290000    0.036600
C      2.389000   -1.334800   -0.021000
N     -0.641600    0.709200    0.436200
N     -6.694300    1.216900   -0.124700
