20

N     -2.416700   -0.423700    1.081500
C     -1.174400   -0.227800    0.528700
N      0.016300   -0.434600    1.147900
C      0.941400   -0.085700    0.263600
C      2.382400   -0.108100    0.525100
C      3.199900    0.993000    0.235100
C      4.570900    0.947000    0.500400
C      5.134200   -0.194700    1.068000
C      4.327500   -1.287200    1.380300
C      2.957100   -1.241000    1.115700
N      0.342000    0.266500   -0.936500
C     -1.013700    0.216500   -0.745600
C     -2.107300    0.523100   -1.602300
N     -3.349100    0.285300   -1.005200
C     -3.552900   -0.158000    0.317800
O     -4.692400   -0.298700    0.771900
C     -4.542800    0.560700   -1.780600
O     -1.960800    0.959900   -2.740100
C      0.999600    0.570000   -2.185700
C     -2.538000   -0.884300    2.452700
