22

N      2.806200   -0.482200    1.188300
C      1.581900   -0.405300    0.569500
N      0.410700   -0.891100    1.055100
C     -0.509300   -0.561100    0.156100
C     -1.939400   -0.866100    0.291400
C     -2.301800   -2.187700    0.601600
C     -3.640700   -2.546300    0.749400
C     -4.633200   -1.584000    0.596200
C     -4.289800   -0.260400    0.308600
C     -2.946500    0.113200    0.169100
O     -2.536100    1.395700   -0.098400
C     -3.474800    2.438300    0.137100
N      0.090700    0.053000   -0.932900
C      1.423000    0.187600   -0.642900
C      2.496900    0.779700   -1.363300
N      3.721900    0.673000   -0.696800
C      3.922900    0.069200    0.561400
O      5.044300    0.035600    1.077300
C      4.896000    1.241300   -1.329400
O      2.350200    1.326200   -2.452800
C     -0.530000    0.434000   -2.179500
C      2.925200   -1.118900    2.487100
