17

N      0.669500    1.460000    0.158400
C     -0.715500    1.482400    0.090200
C     -1.471100    0.236000   -0.054200
C     -0.756500   -0.984300   -0.122200
C      0.734100   -0.964200   -0.045100
C      1.432500    0.262000    0.094800
C      2.834500    0.304300    0.169300
C      3.570400   -0.875800    0.105800
C      2.913800   -2.091800   -0.031100
C      1.517000   -2.134000   -0.105300
C     -1.508800   -2.167600   -0.261100
C     -2.905800   -2.145700   -0.329900
C     -3.587900   -0.938500   -0.261500
C     -2.873900    0.248700   -0.124100
C     -1.118600    2.804100    0.182600
C      0.036800    3.604100    0.309200
C      1.120900    2.756300    0.291800
