20

N      0.441900   -0.193000    0.018200
C     -0.056800   -1.480400   -0.132800
C     -1.461300   -1.686100   -0.267100
C     -2.359100   -0.638100   -0.252800
C     -1.832700    0.722800   -0.093300
C     -0.432200    0.947100    0.042300
C      0.036800    2.255000    0.192500
C     -0.857500    3.329900    0.209400
C     -2.224700    3.113100    0.077200
C     -2.711500    1.816000   -0.073500
C     -3.700500   -1.112100   -0.404700
C     -3.757600   -2.485300   -0.526100
S     -2.204400   -3.200900   -0.457700
N      0.875100   -2.400700   -0.133400
C      2.041700   -1.709600    0.022400
C      1.826200   -0.326700    0.122000
C      2.916900    0.547000    0.287000
C      4.208600    0.003900    0.348300
C      4.423300   -1.365600    0.249800
C      3.343900   -2.233400    0.086200
