26

Si     3.667200   -0.930700   -2.504400
C      5.585700   -0.986500   -2.560100
C      6.126000   -0.482100   -1.428800
C      5.175700   -0.028500   -0.460400
C      5.356500    0.521200    0.779800
S      3.832900    0.870100    1.519600
C      2.933100    0.289900    0.161800
C      3.801200   -0.152000   -0.793000
C      1.486000    0.328000    0.187300
C      0.690900   -0.552500    0.962000
C     -0.727900   -0.477100    0.915500
N     -1.704900   -1.222300    1.574700
C     -2.929100   -0.764100    1.191800
C     -2.778300    0.274800    0.290400
Si    -4.486300    0.886700   -0.214300
C     -5.266500   -0.411800    0.919100
C     -6.487200   -0.902600    1.360500
C     -6.146400   -1.922200    2.237500
O     -4.785700   -2.068400    2.345000
C     -4.256900   -1.131200    1.527500
C     -1.430300    0.442200    0.127900
C     -0.660600    1.337000   -0.654100
C     -1.015200    2.333800   -1.505200
O      0.143500    2.890000   -1.990000
C      1.197200    2.217500   -1.417500
C      0.737400    1.227100   -0.578600
