22

N      0.685700    0.201500    0.098900
C      0.428100   -1.090900   -0.345900
C     -0.929200   -1.571600   -0.569000
C     -1.144700   -2.884700   -1.018800
C     -2.435800   -3.353400   -1.234800
C     -3.514500   -2.510800   -1.001800
C     -3.302100   -1.201300   -0.553300
C     -2.005600   -0.698100   -0.325500
C     -1.719300    0.685400    0.151100
C     -2.757900    1.605700    0.412000
C     -2.491900    2.899300    0.857600
Cl    -3.790500    3.986000    1.162300
C     -1.185900    3.314500    1.056400
C     -0.132700    2.432400    0.808900
C     -0.378600    1.127500    0.360500
N      1.529500   -1.785700   -0.528400
C      2.546900   -0.943300   -0.199700
C      3.924900   -1.216700   -0.228300
C      4.827600   -0.222900    0.145800
C      4.362700    1.024300    0.542400
C      2.990500    1.314900    0.577100
C      2.075100    0.313300    0.199700
