22

N     -0.685100   -0.192700   -0.012600
C     -0.455700   -1.558600   -0.139100
C      0.898900   -2.107500   -0.065800
C      1.115300   -3.495900   -0.081800
C      2.402100   -4.015500    0.028400
C      3.480400   -3.152100    0.160900
C      3.272900   -1.768900    0.176800
C      1.983400   -1.212000    0.059600
C      1.718700    0.254600    0.037800
C      2.758600    1.206000    0.051100
C      2.507900    2.578900   -0.036800
C      1.205700    3.048300   -0.179300
C      0.930900    4.518700   -0.293600
C      0.151500    2.128100   -0.173800
C      0.391400    0.751700   -0.029700
C     -1.673000   -2.166600   -0.369000
C     -2.689200   -1.199500   -0.188700
C     -4.097000   -1.275700   -0.216600
C     -4.858600   -0.157900    0.126400
C     -4.233700    1.017200    0.519000
C     -2.837900    1.117800    0.540500
C     -2.062600    0.012000    0.132400
