18

N     -0.196100    1.593700    0.362900
C     -1.562400    1.422500    0.244900
C     -2.121300    0.117600   -0.087900
C     -3.509300   -0.047200   -0.203800
C     -4.043300   -1.292100   -0.520000
C     -3.192100   -2.372900   -0.720300
C     -1.805600   -2.212300   -0.605700
C     -1.233800   -0.966200   -0.287800
C      0.236700   -0.737700   -0.153300
C      1.188100   -1.755200   -0.343000
C      2.561700   -1.514000   -0.209600
C      3.035100   -0.245600    0.129100
C      4.509100    0.012800    0.237400
C      2.117100    0.792600    0.308900
C      0.740700    0.547600    0.174600
N     -2.209400    2.551800    0.468500
C     -1.240900    3.479000    0.738800
C      0.011400    2.913900    0.680600
