23

N     -0.652500    0.727300   -0.016900
C     -1.884000    0.137400    0.235300
C     -2.021100   -1.307200    0.372700
C     -3.288100   -1.879400    0.567500
C     -3.428700   -3.259000    0.671400
C     -2.304100   -4.069400    0.578400
C     -1.038700   -3.501100    0.386900
C     -0.863900   -2.107500    0.283000
C      0.460000   -1.444600    0.105400
C      1.664800   -2.174200    0.076800
C      2.911200   -1.546900   -0.042000
C      2.989500   -0.163600   -0.115700
O      4.137000    0.575000   -0.202100
C      5.365900   -0.141000   -0.217400
C      1.812700    0.587800   -0.094900
C      0.557900   -0.032000   -0.017400
N     -2.848600    1.028100    0.330200
C     -2.264500    2.223500    0.027800
C     -2.875100    3.485800   -0.054900
C     -2.114800    4.586700   -0.451900
C     -0.772200    4.428800   -0.778000
C     -0.144500    3.178100   -0.693900
C     -0.901900    2.077700   -0.251500
