27

Si     5.187300   -0.188100   -1.441200
C      6.955200   -0.204600   -0.733400
C      6.938700   -0.150600    0.615500
C      5.632800   -0.094500    1.199200
C      5.261000   -0.032900    2.513000
S      3.545500    0.015900    2.654000
C      3.290300   -0.046300    0.933400
C      4.511400   -0.101400    0.318200
C      1.946700   -0.033700    0.406300
C      1.508500   -0.078500   -0.921200
C      0.122700   -0.039700   -0.848600
C     -0.913600   -0.053800   -1.815300
C     -0.787300   -0.114500   -3.174300
N     -2.083000   -0.102100   -3.669300
C     -3.004400   -0.034600   -2.632900
C     -2.273600   -0.004600   -1.478100
C     -2.733800    0.064300   -0.127600
C     -4.001100    0.121800    0.466800
C     -5.339900    0.137600    0.029800
C     -6.373100    0.203900    0.972500
C     -6.092100    0.254200    2.335500
C     -4.774400    0.240200    2.801100
C     -3.746500    0.173800    1.851800
N     -2.370700    0.146600    2.041300
C     -1.755100    0.079700    0.832400
C     -0.266000    0.025600    0.458600
O      0.835900    0.030400    1.244500
