24

N     -1.250300   -0.350500   -0.126800
C     -1.603200    0.949800    0.205600
C     -0.570100    1.943700    0.495700
C     -0.945900    3.254100    0.830100
C      0.021600    4.212300    1.109000
C      1.365300    3.862600    1.054100
C      1.747500    2.555900    0.720800
C      0.796800    1.570000    0.435100
C      1.143000    0.168300    0.075900
C      2.426400   -0.525400   -0.071200
C      3.781500   -0.114400    0.074500
C      4.851300   -0.997100   -0.128200
C      4.615600   -2.312200   -0.480800
C      3.309300   -2.764500   -0.636000
C      2.235900   -1.870700   -0.430500
S      0.575300   -2.266000   -0.580400
C      0.101000   -0.711900   -0.184600
N     -2.906900    1.127700    0.216400
C     -3.435500   -0.086900   -0.117800
C     -4.789200   -0.437600   -0.247500
C     -5.123400   -1.746600   -0.601200
C     -4.126100   -2.691600   -0.822300
C     -2.770300   -2.360900   -0.697800
C     -2.439200   -1.041100   -0.341400
