18

N      1.674200   -0.351600    0.317200
C      2.122000   -1.615900    0.760800
C      3.427300   -1.874200    0.872400
C      4.484600   -0.941000    0.569200
C      4.258900    0.305700    0.135600
B      2.754800    0.676400   -0.018300
C      2.275900    2.071400   -0.507400
C      0.960200    2.292200   -0.606300
C     -0.026700    1.263300   -0.268900
C      0.297200   -0.000400    0.172300
C     -0.674500   -0.924900    0.474000
C     -2.024100   -0.597100    0.337600
C     -2.995100   -1.539800    0.645600
C     -4.327000   -1.213000    0.509800
C     -4.643000    0.053300    0.067900
C     -3.690200    0.984800   -0.236600
C     -2.347500    0.668600   -0.104300
C     -1.357500    1.580900   -0.401500
