13

N     -0.682500    0.290800    0.005400
C     -1.542800    1.383500    0.135800
C     -2.870600    1.177300    0.157500
C     -3.374400   -0.182400    0.044000
C     -2.541100   -1.233600   -0.081600
C     -1.132500   -1.023200   -0.105300
N     -0.135000   -1.873400   -0.217000
C      1.000200   -1.101900   -0.179000
C      0.696800    0.251700   -0.041100
C      1.684900    1.244400    0.022500
C      3.017800    0.825000   -0.058700
C      3.345000   -0.524600   -0.196900
C      2.343400   -1.500800   -0.258500
