20

N      2.159000    2.937900    0.919700
C      2.422800    1.923200    0.041300
O      3.420000    1.931400   -0.664100
C      1.437500    0.816200    0.008800
C      0.085800    1.160900   -0.089700
C     -0.857900    0.149300   -0.138900
C     -2.311100    0.396200   -0.250100
C     -2.919200    1.560400    0.241700
C     -4.290500    1.724900    0.101100
N     -5.099000    0.822900   -0.487700
C     -4.512000   -0.298400   -0.950200
C     -3.152400   -0.550500   -0.854700
N     -0.488900   -1.154200   -0.099900
C      0.808600   -1.488100   -0.013900
C      1.131900   -2.838300    0.024100
C      2.453300   -3.280600    0.121800
C      3.478600   -2.349800    0.183800
Cl     5.109400   -2.877400    0.311900
C      3.184900   -0.989300    0.147200
C      1.843200   -0.536200    0.044100
