19

N     -4.911900    1.017600   -0.543200
C     -3.963200    0.106500   -0.908400
O     -4.252000   -0.827900   -1.645700
C     -2.580900    0.344300   -0.327600
C     -2.599200    0.184200    1.198000
C     -1.192400    0.298100    1.780200
C     -0.225200   -0.663600    1.096200
N     -0.216800   -0.382100   -0.367300
S      1.031500   -1.176400   -1.239100
O      0.937100   -0.788000   -2.629400
O      1.021600   -2.567100   -0.837000
C      2.500300   -0.413500   -0.591200
C      3.441800   -1.177400    0.104900
C      4.588600   -0.559200    0.607000
C      4.784600    0.808600    0.405100
Br     6.338500    1.641100    1.088800
C      3.847200    1.568000   -0.297400
C      2.699000    0.955400   -0.801400
C     -1.573100   -0.620400   -0.961100
