21

N      4.414500    1.629300   -1.966600
C      4.970500    1.288700   -0.765300
O      5.473500    2.157200   -0.056000
C      5.042600   -0.191800   -0.430000
S      3.613500   -1.148000   -1.046300
C      2.348700   -0.599100    0.057700
N      2.555400    0.457300    0.871200
C      1.550700    0.838800    1.683000
N      0.327400    0.293300    1.793400
C      0.171900   -0.747600    0.955100
C      1.117900   -1.248300    0.077500
C      0.475400   -2.334900   -0.551000
N     -0.775300   -2.524400   -0.115400
N     -0.946300   -1.522800    0.786400
C     -2.205600   -1.381600    1.498100
C     -3.127800   -0.412800    0.801300
C     -3.912400   -0.832700   -0.283100
C     -4.757600    0.065900   -0.935400
C     -4.823500    1.392800   -0.515000
C     -4.041400    1.824200    0.554800
C     -3.195300    0.927600    1.209000
