22

N      0.597500   -1.024000    2.140500
C      1.121800   -0.462900    1.020400
C      0.548100    0.436200    0.134900
C     -0.801500    0.961900    0.289100
C     -1.941100    0.257900   -0.188700
C     -1.881600   -0.995600   -0.845400
C     -3.034100   -1.643400   -1.294600
C     -4.277300   -1.056600   -1.100400
C     -4.368200    0.177400   -0.457900
C     -3.218600    0.842500   -0.000100
C     -3.331600    2.085900    0.642300
C     -2.203900    2.762200    1.102700
C     -0.943100    2.203200    0.927200
C      1.500900    0.710300   -0.882600
C      1.335200    1.581300   -2.004600
N      1.224400    2.285800   -2.920700
C      2.636700   -0.022800   -0.601000
C      3.908600   -0.175600   -1.233800
C      4.838300   -0.975800   -0.679200
C      4.584700   -1.691900    0.557500
C      3.389000   -1.556900    1.153800
N      2.413000   -0.733800    0.579500
