21

N      0.232600    1.359600    2.193700
C     -0.359600    1.412800    0.968500
C     -0.277600    0.558400   -0.120600
C      0.469000   -0.815100   -0.197600
C      1.087800   -1.511400    0.823600
C      1.614600   -2.705000    0.260700
C      2.333300   -3.814200    0.740000
C      2.678000   -4.831700   -0.162200
C      2.315500   -4.753500   -1.510100
C      1.596700   -3.659500   -2.003000
C      1.271400   -2.666900   -1.082400
O      0.575600   -1.533900   -1.357200
C     -0.996600    1.150100   -1.194300
C     -1.159800    0.646300   -2.523600
N     -1.317500    0.278200   -3.613700
C     -1.556800    2.321800   -0.727300
C     -2.386000    3.330700   -1.307800
C     -2.807100    4.363600   -0.554600
C     -2.441200    4.480900    0.844200
C     -1.652000    3.541900    1.391100
N     -1.200400    2.467900    0.612300
