19

N     -1.142400   -0.675000   -2.016200
C     -0.294500   -0.101900   -1.117700
C     -0.204400   -0.174000    0.266500
C     -1.089100   -0.902300    1.160700
C     -2.475900   -0.935700    0.957400
C     -3.305200   -1.637500    1.838000
C     -2.751400   -2.301600    2.930800
Cl    -3.772500   -3.165500    4.012700
C     -1.377400   -2.264400    3.155600
C     -0.550000   -1.561600    2.274900
N      0.894100    0.515900    0.731700
C      1.441400    1.060700   -0.330900
C      2.585300    1.900500   -0.456800
C      2.959100    2.360000   -1.670100
C      4.102800    3.201800   -1.804400
N      5.032600    3.885500   -1.923900
C      2.197500    2.004900   -2.867800
C      1.121200    1.206700   -2.753700
N      0.747900    0.732900   -1.493500
