21

N     -1.375300    1.296900   -1.046900
C     -1.231300    0.419200   -0.015800
C     -0.094600    0.029900    0.675200
C      1.288900    0.451200    0.449400
N      2.083400    0.834600    1.455300
N      3.245800    1.122300    0.847900
C      3.230800    0.946400   -0.510100
C      1.949200    0.491500   -0.808200
C      1.635100    0.187700   -2.147800
C      2.611300    0.370500   -3.135000
C      3.882200    0.839200   -2.803500
C      4.221200    1.135300   -1.479500
C     -0.492000   -0.854900    1.712700
C      0.340500   -1.501000    2.681800
N      0.972500   -2.066900    3.475400
C     -1.860600   -1.019000    1.615700
C     -2.828700   -1.775400    2.345600
C     -4.122100   -1.739300    1.974900
C     -4.565700   -0.948700    0.841700
C     -3.661600   -0.229200    0.157200
N     -2.315000   -0.253600    0.541400
