13

N      1.067400   -2.148000   -1.803200
C      0.977500   -0.872800   -1.197900
C     -0.075800   -0.511800   -0.311000
C     -0.020700    0.747000    0.346300
C     -1.086200    1.103700    1.205200
N     -1.083600    2.327600    1.869600
C     -1.103800    3.351800    2.440600
C     -2.175900    0.264200    1.437900
C     -2.223600   -0.969900    0.809600
C     -1.189100   -1.350300   -0.049600
C      1.095500    1.584800    0.128200
C      2.145200    1.192900   -0.697100
C      2.092100   -0.037200   -1.338100
