11

N     -3.361800    1.397100    0.566800
C     -2.313600    0.490800    0.446600
C     -1.004300    0.930900    0.377000
C      0.016100   -0.017800    0.286800
C      1.416700    0.468000    0.205500
O      2.283700   -0.574800    0.187300
C      3.656300   -0.185200    0.114700
O      1.717900    1.650000    0.161300
C     -0.307900   -1.373200    0.275900
C     -1.644000   -1.712900    0.358600
N     -2.644900   -0.810300    0.443800
