10

N      2.812700    0.233700    0.172400
C      1.431400    0.085400    0.019700
C      0.663800    1.139100   -0.487600
C     -0.731400    1.053900   -0.532500
C     -1.367000   -0.084000   -0.023800
N     -2.831000   -0.181000   -0.063500
O     -3.354500   -1.202800    0.403600
O     -3.458500    0.763100   -0.564800
C     -0.616300   -1.121900    0.539300
C      0.778000   -1.019500    0.575600
