16

N     -4.943600    0.574400    0.220600
C     -3.566900    0.327900    0.207800
C     -2.751400    0.830800    1.221400
C     -1.359600    0.693300    1.156200
C     -0.743900    0.084300    0.052700
C      0.719100   -0.060600   -0.019900
C      1.308900   -1.315200   -0.257400
C      2.698500   -1.461000   -0.327500
C      3.517800   -0.339400   -0.159600
N      4.976800   -0.484900   -0.232100
O      5.667100    0.530100   -0.060800
O      5.433200   -1.614500   -0.460100
C      2.956000    0.919900    0.076800
C      1.564900    1.051100    0.145300
C     -1.568900   -0.365000   -0.989100
C     -2.960200   -0.224200   -0.920300
