14

N     -4.964300    0.045700    0.401100
C     -3.565700    0.044100    0.443100
C     -2.853700    1.229100    0.257500
C     -1.455800    1.220200    0.179800
C     -0.735000    0.018600    0.244100
C      0.734400    0.004700    0.162300
C      1.410400    0.641800   -0.888900
C      2.808500    0.626800   -0.962800
C      3.566100   -0.059100   -0.013500
N      4.962500    0.028800   -0.025800
C      2.906000   -0.642900    1.067700
C      1.508000   -0.631300    1.144500
C     -1.464000   -1.173200    0.370700
C     -2.862100   -1.160300    0.446600
