24

Si     0.544900   -1.246900    0.779300
C      2.044300   -0.324900    0.072500
C      1.650400    0.771300   -0.610300
C      0.194400    0.988000   -0.645500
C     -0.442900    2.033100   -1.277500
N     -1.785900    2.185600   -1.279100
C     -2.542500    1.274800   -0.633100
C     -3.919500    1.455800   -0.650500
C     -4.786200    0.556100   -0.003600
C     -6.196900    0.474300    0.152000
C     -6.470200   -0.647900    0.900300
N     -5.277600   -1.249400    1.204000
C     -4.234300   -0.532300    0.662600
C     -2.854800   -0.759900    0.710100
C     -1.999800    0.159100    0.051500
C     -0.598400    0.038200    0.028300
C      3.403300   -0.726500    0.234900
S      3.858000   -2.177000    1.145000
C      5.550900   -1.982000    0.895500
C      5.723600   -0.872800    0.161800
O      6.919500   -0.372000   -0.250500
C      6.478700    0.738400   -0.940600
C      5.087300    0.895100   -0.941700
C      4.582800   -0.194000   -0.196900
