31

Si    -4.778000    0.403900   -1.872800
C     -6.662500    0.749100   -1.711400
C     -7.003200    1.028900   -0.434100
C     -5.915800    1.009400    0.495200
C     -5.886600    1.250400    1.841800
S     -4.276500    1.099500    2.453200
C     -3.621200    0.698600    0.902500
C     -4.629100    0.698800   -0.017600
C     -2.204500    0.437800    0.759500
C     -1.183400    1.383500    0.985000
C      0.228700    1.132400    0.833000
C      1.107900    2.158100    1.193900
C      2.496800    2.014300    1.121400
C      3.074800    0.854600    0.584900
C      4.509200    0.796900    0.505100
N      5.516700    1.645700    0.929900
C      6.756400    1.136600    0.596800
C      6.580200   -0.058200   -0.070000
C      5.201200   -0.235500   -0.100000
C      4.421200   -1.244700   -0.695100
C      4.804000   -2.300600   -1.457200
O      3.660200   -2.898600   -1.914500
C      2.598200   -2.186400   -1.410800
C      3.021600   -1.179100   -0.569900
C      2.228000   -0.208200    0.117000
C      0.789600   -0.109900    0.357200
C     -0.266000   -1.073200    0.252200
C     -0.153000   -2.440700    0.152300
N     -1.421800   -2.977600    0.122000
C     -2.353700   -1.985800    0.304800
C     -1.665000   -0.802800    0.432500
