15

N      4.512000    1.759200   -0.811100
C      3.456000    1.039700   -0.240200
C      2.948200   -0.093000   -0.885400
C      1.818700   -0.749600   -0.391200
C      1.164700   -0.238600    0.731500
S     -0.275100   -1.074700    1.343300
O      0.049300   -2.481400    1.446400
O     -0.791800   -0.338900    2.478900
N     -1.377900   -0.880600    0.067900
C     -1.795900    0.507900   -0.269200
C     -3.318800    0.482700   -0.270900
C     -3.640700   -0.953700   -0.628900
C     -2.597500   -1.722500    0.165900
C      1.627200    0.918800    1.358400
C      2.758600    1.565100    0.853300
