28

Si    -4.489900   -1.359000   -0.396400
C     -6.344900   -1.071500    0.017000
C     -6.519800    0.064400    0.727800
C     -5.317600    0.785900    1.011300
C     -5.115100    1.949800    1.702100
S     -3.433300    2.350100    1.742100
C     -2.981900    0.959100    0.818300
C     -4.102700    0.240800    0.519700
C     -1.589500    0.724600    0.501800
C     -0.611700    0.342000    1.438900
C      0.769100    0.076200    1.131000
C      1.591800   -0.289800    2.196700
C      2.944800   -0.573200    2.019300
C      3.535300   -0.505100    0.745000
C      4.920500   -0.803200    0.580800
S      6.118400   -1.265900    1.742900
C      7.347100   -1.367100    0.564700
C      6.878600   -1.061400   -0.690200
C      5.490500   -0.737700   -0.690300
N      4.784800   -0.402100   -1.796600
C      3.474900   -0.126300   -1.591700
C      2.766200   -0.144100   -0.381600
C      1.352200    0.161300   -0.192100
C      0.327000    0.565900   -1.120300
C      0.426100    0.801300   -2.473500
N     -0.815200    1.184800   -2.941200
C     -1.719400    1.205600   -1.911800
C     -1.047500    0.823400   -0.775700
