18

N     -1.742400   -1.483700   -1.863900
C     -2.264400   -0.726400   -0.796000
C     -3.657700   -0.671100   -0.641100
C     -4.243200    0.133500    0.336700
C     -3.443500    0.927300    1.149600
C     -2.060300    0.930700    0.968500
C     -1.449800    0.128800   -0.016600
C      0.012200    0.208800   -0.192400
C      0.563200    0.740300   -1.390800
C      1.945900    0.840800   -1.588000
C      2.757200    0.403400   -0.563200
C      2.238100   -0.114300    0.610900
C      0.878200   -0.225200    0.828200
C      3.366800   -0.475000    1.467500
O      3.283000   -0.961500    2.576500
N      4.493100   -0.158000    0.772100
C      4.215100    0.370400   -0.451000
O      4.997100    0.745600   -1.300300
