17

N     -2.271100   -1.651400   -0.868400
C     -2.496200   -0.456200   -0.155900
C     -3.822300   -0.075300    0.098800
C     -4.117200    1.140800    0.715900
C     -3.089400    2.013300    1.052300
C     -1.769400    1.676700    0.751500
C     -1.451000    0.455700    0.124100
C     -0.043700    0.173800   -0.208500
C      0.380300    0.091300   -1.538400
C      1.718900   -0.169200   -1.840900
C      2.661500   -0.349800   -0.839200
N      3.944200   -0.600600   -1.169600
C      4.806300   -0.765100   -0.143700
C      4.406400   -0.684500    1.173900
N      3.126300   -0.435800    1.524500
C      2.249500   -0.266800    0.514100
C      0.914100   -0.007700    0.801400
