17

N     -1.901700    2.189400    0.117800
C     -2.416900    0.892000    0.286600
C     -3.802000    0.706300    0.167000
C     -4.364600   -0.570700    0.194700
C     -3.544200   -1.687200    0.302900
C     -2.160700   -1.525000    0.370100
C     -1.577000   -0.243500    0.346900
C     -0.116200   -0.130300    0.407800
C      0.539200    0.189500    1.590800
N      1.880500    0.316400    1.708300
C      2.617700    0.105500    0.599200
C      3.997800    0.217000    0.660100
C      4.784700    0.004300   -0.469400
C      4.147400   -0.321000   -1.650100
N      2.808600   -0.442500   -1.764200
C      2.066500   -0.230900   -0.656400
C      0.685700   -0.340800   -0.719600
