12

N     -0.454000    0.972100    1.927400
C     -0.887400    0.155400    0.858700
C     -2.245900   -0.188100    0.797300
C     -2.760700   -0.892600   -0.291400
C     -1.928700   -1.234900   -1.351500
C     -0.585300   -0.854700   -1.332100
C     -0.053300   -0.135400   -0.245700
C      1.356100    0.265400   -0.255500
C      2.041300    0.651200   -1.393800
S      3.664700    1.047300   -1.004100
C      3.333700    0.694900    0.639400
N      2.108500    0.307100    0.916700
