21

N     -0.045600   -4.597300    0.802400
C     -0.611000   -3.372900    1.088800
N     -1.623800   -3.348900    1.924200
C     -2.084300   -2.128300    2.132700
Cl    -3.408700   -2.000500    3.205700
N     -1.663900   -0.994600    1.596600
C     -0.643900   -1.118000    0.751000
N     -0.109400    0.057900    0.109300
C     -0.872500    1.282800    0.081400
C     -0.248000    2.520400    0.327400
C     -0.972500    3.714900    0.290600
C     -2.334700    3.694800    0.004200
C     -2.972600    2.482500   -0.245800
C     -2.248000    1.287500   -0.208800
C      1.196000    0.023200   -0.505800
C      1.417600    0.644400   -1.749800
C      2.679600    0.630100   -2.350000
C      3.745100   -0.003500   -1.716600
C      3.550300   -0.621700   -0.484300
C      2.287700   -0.607700    0.116100
N     -0.106000   -2.314000    0.477500
