20

N     -5.510900   -0.234600   -1.400000
C     -5.513900    0.234600   -0.136100
N     -6.618000    0.575700    0.525200
O     -6.186800    0.957600    1.785800
N     -4.807000    0.861600    1.900600
C     -4.382000    0.434100    0.708400
N     -3.024000    0.259900    0.515200
C     -2.390200   -0.011200   -0.676900
O     -2.935500   -0.109600   -1.774200
C     -0.890300   -0.188300   -0.524200
S     -0.113600    1.435700   -0.296400
C      1.561800    0.954200   -0.138600
N      1.905800   -0.306300   -0.022300
C      3.283700   -0.402100    0.090000
C      4.021000   -1.595900    0.226200
C      5.414900   -1.544500    0.330800
C      6.079700   -0.322600    0.301500
C      5.372100    0.876000    0.167500
C      3.972700    0.812800    0.063000
S      2.835700    2.094300   -0.109500
