17

O     -5.036100    1.691800    0.640700
N     -4.833300    0.631100    0.034400
O     -5.718600   -0.067200   -0.479100
C     -3.458800    0.169200   -0.083100
C     -3.147100   -1.004100   -0.764700
C     -1.808500   -1.394400   -0.843100
C     -0.815100   -0.615000   -0.241000
N      0.522900   -1.053900   -0.364700
C      1.716000   -0.372800   -0.038000
C      1.822200    1.023700   -0.034500
C      3.041300    1.657200    0.233200
C      4.178300    0.894800    0.476900
Cl     5.678600    1.669600    0.803100
C      4.107900   -0.494000    0.444500
C      2.886000   -1.120700    0.176700
N     -1.127900    0.526300    0.411800
C     -2.431200    0.899500    0.485000
