20

O     -6.902800   -0.327400    0.018200
N     -6.051500    0.090200   -0.779700
C     -4.638800   -0.028400   -0.395900
C     -3.641600    0.430700   -1.267400
C     -2.296900    0.317000   -0.900300
C     -4.300100   -0.599700    0.838400
C     -2.954400   -0.711800    1.202200
C     -1.949400   -0.254200    0.334700
N     -0.582000   -0.369000    0.706000
N      0.419300    0.060100   -0.101900
C      1.527900   -0.224300    0.602000
C      1.126900   -0.820300    1.818000
N     -0.201700   -0.913800    1.888600
C      2.874400    0.071000    0.108400
C      3.054000    0.675300   -1.146300
C      4.333800    0.962300   -1.628700
C      5.453200    0.648900   -0.862800
C      5.293900    0.049200    0.384100
C      4.013300   -0.238400    0.867800
O     -6.309300    0.600900   -1.879000
