29

Si     4.763300    0.367900   -1.585000
C      6.638400    0.618400   -1.279700
C      6.939400    0.522900    0.034200
C      5.821600    0.262900    0.888700
C      5.753800    0.103800    2.246300
S      4.125000   -0.191600    2.744600
C      3.516000   -0.118700    1.126700
C      4.547900    0.139200    0.272700
C      2.096200   -0.284900    0.880200
C      1.257500    0.789100    0.543000
C     -0.113200    0.683400    0.285600
N     -0.716700    1.829200   -0.016800
C     -2.046600    1.817100   -0.277400
C     -2.867400    0.693700   -0.261700
C     -2.249500   -0.538300    0.054700
C     -3.087500   -1.674100    0.069900
C     -4.450700   -1.589100   -0.211900
C     -5.030700   -0.358200   -0.521400
C     -6.400200   -0.262700   -0.806100
C     -6.960500    0.968800   -1.111800
C     -6.127000    2.066200   -1.122000
N     -4.804100    2.006500   -0.852400
C     -4.243700    0.809600   -0.551600
C     -0.828200   -0.548600    0.335900
C     -0.003700   -1.697900    0.671400
N     -0.407700   -2.977700    0.779100
S      0.911500   -3.893300    1.169200
N      2.079500   -2.728800    1.215400
C      1.480900   -1.556400    0.942600
