20

O      7.832000    0.004200    1.281700
N      7.345600    0.055400    0.142900
C      5.885800   -0.038500    0.018500
C      5.099000   -0.192600    1.166000
C      3.708600   -0.281500    1.041400
C      3.096100   -0.207500   -0.218200
C      3.899900   -0.069600   -1.359100
C      5.291000    0.021200   -1.247300
C      1.641500   -0.327100   -0.388200
C      0.744200    0.228300    0.442500
C     -0.709900    0.107600    0.272200
C     -1.519300   -0.018700    1.399700
C     -2.915200   -0.109800    1.276000
C     -3.566500   -0.056300    0.031700
N     -4.957000   -0.165500   -0.087800
C     -5.786800    0.007400    1.103200
C     -5.590500    0.192800   -1.355500
C     -2.726300    0.072700   -1.087800
C     -1.329100    0.163500   -0.975300
O      8.006400    0.180700   -0.898100
