23

O      3.288900   -1.503900    2.077800
C      2.762700   -0.786500    1.242600
C      1.300400   -0.770200    1.040600
C      0.668500   -0.004300    0.137100
C     -0.744900   -0.078200    0.023100
N     -1.575400   -0.912600    0.630100
C     -2.807900   -0.619800    0.142600
C     -2.769100    0.398300   -0.757900
C     -3.929200    0.869200   -1.436800
N     -5.099200    0.215800   -1.037000
C     -6.346900    0.613500   -1.659700
C     -5.169400   -0.857900   -0.126800
N     -3.977500   -1.259000    0.475300
C     -3.962900   -2.356200    1.425900
O     -6.243400   -1.416100    0.116200
O     -3.892200    1.748000   -2.293000
N     -1.451100    0.778200   -0.811400
C     -0.929200    1.875300   -1.594300
O      3.384300    0.073600    0.402900
C      4.828000    0.218300    0.429300
C      5.133400    1.266000   -0.652000
C      5.309000    0.755500    1.781600
C      5.526000   -1.092900    0.052100
