23

O      5.871700    2.658500   -1.039300
C      5.335700    1.552300   -1.011900
C      6.139200    0.295000   -1.220000
C      3.865400    1.440000   -0.769100
C      3.213900    0.199500   -0.728400
C      1.842500    0.180000   -0.497200
C      1.113000    1.373900   -0.306600
C      1.750500    2.601800   -0.345600
C      3.130400    2.630000   -0.577700
C     -0.278600    1.046000   -0.089500
C     -1.371000    1.856100    0.136300
C     -2.629700    1.257000    0.315100
C     -2.832300   -0.144700    0.282400
N     -4.095000   -0.721000    0.447700
C     -5.286800    0.088100    0.723000
C     -5.373000    0.465800    2.143500
C     -5.439800    0.773800    3.302800
C     -4.190400   -2.133500    0.812900
C     -1.691400   -0.936600    0.040800
C     -0.440300   -0.348100   -0.138200
C      0.903900   -1.028300   -0.406300
C      1.299200   -1.943600    0.758100
C      0.875900   -1.801400   -1.729700
