22

O      2.254300   -2.521200    1.073100
C      1.596000   -1.492400    0.956500
C      2.219400   -0.217600    0.577500
C      3.584200   -0.182300    0.266100
C      4.183300    1.034200   -0.048700
Br     6.024200    1.090500   -0.472000
C      3.438700    2.211300   -0.047500
C      2.078300    2.164800    0.267500
Br     1.101100    3.793100    0.252200
C      1.455300    0.947100    0.570800
O      0.125100    0.963300    0.871900
C     -0.624200   -0.257500    0.726700
C     -1.261100   -0.369200   -0.697100
C     -2.268800   -1.533900   -0.779300
C     -0.225800   -0.574300   -1.820500
C     -2.021500    0.931300   -0.973300
O     -3.010600    1.125800   -0.054200
C     -3.747300    2.336400   -0.238500
O     -1.785600    1.692400   -1.902600
C      0.138500   -1.463000    1.211400
C     -0.425300   -2.475500    1.891800
O      0.213400   -3.598800    2.348100
