24

Si    -3.592500    1.660800   -0.743900
C     -5.445500    1.568600   -1.194100
C     -5.989100    0.398000   -0.794600
C     -5.079200   -0.496900   -0.146900
C     -5.286000   -1.736100    0.394500
S     -3.822100   -2.355700    1.069600
C     -2.902800   -0.963500    0.608400
C     -3.728800   -0.071100   -0.010700
C     -1.501300   -0.876700    0.881700
C     -0.796500   -1.177300    2.030800
C      0.570400   -0.915100    1.780000
N      1.622300   -1.051900    2.620600
C      2.823200   -0.724200    2.090000
C      3.052000   -0.270000    0.782000
C      4.347500    0.062000    0.273700
S      5.875100   -0.005100    1.090700
C      6.729200    0.546200   -0.273100
C      5.896100    0.783400   -1.338500
C      4.516900    0.510500   -1.044200
C      3.374600    0.631400   -1.874100
C      2.101000    0.313200   -1.397800
C      1.945200   -0.132900   -0.081000
C      0.687300   -0.470600    0.465100
N     -0.585100   -0.468300   -0.059100
