21

O      2.356000   -2.299700    0.732600
C      1.812500   -1.403000    0.103400
C      2.346100   -0.033700    0.118200
C      3.613200    0.214100    0.654500
C      4.113300    1.509100    0.634200
F      5.327500    1.756400    1.141700
C      3.374700    2.554900    0.090300
C      2.107900    2.302200   -0.438200
C      1.587000    1.006300   -0.416300
O      0.332500    0.860600   -0.931400
C     -0.362800   -0.378700   -0.681300
C     -1.336800   -0.249100    0.533100
C     -0.634600    0.076800    1.865000
C     -2.156700   -1.538800    0.745100
C     -2.307300    0.892400    0.212200
O     -3.116400    0.567300   -0.838500
C     -4.045900    1.591900   -1.197700
O     -2.357600    1.959000    0.810900
C      0.562100   -1.570100   -0.673500
C      0.320100   -2.698300   -1.359000
O      1.176300   -3.759600   -1.434000
