22

O      1.606400   -3.116400   -0.878200
C      1.051300   -2.085300   -0.511300
C      1.780500   -0.811100   -0.392200
C      3.110600   -0.705900   -0.806100
C      3.807800    0.491300   -0.623200
O      5.098900    0.472600   -1.072400
C      5.856500    1.665700   -0.914300
C      3.167500    1.573200   -0.012200
C      1.836800    1.461700    0.406300
C      1.141600    0.274600    0.199300
O     -0.152200    0.217000    0.638300
C     -0.984400   -0.656700   -0.168300
C     -2.461800   -0.387800    0.261500
C     -2.703900   -0.693000    1.751900
C     -3.489200   -1.151800   -0.594700
C     -2.704600    1.095800   -0.059400
O     -3.074900    1.820300    1.029700
C     -3.306000    3.205300    0.767200
O     -2.588600    1.565500   -1.187100
C     -0.394800   -2.053100   -0.128000
C     -0.978300   -3.222500    0.180000
O     -0.380600   -4.459300    0.150800
