15

O      2.901800    1.416600    1.806500
C      2.509300    0.729400    0.876600
C      1.071300    0.536600    0.545200
C      0.116200    1.183200    1.337000
C     -1.248100    1.032200    1.063800
C     -1.688300    0.229100    0.003900
N     -3.061900    0.087400   -0.275600
C     -4.154300    0.242300    0.643800
C     -5.022800   -0.463000   -0.402600
C     -3.700800   -1.003900   -0.956000
C     -0.722900   -0.403700   -0.790500
C      0.644200   -0.257700   -0.524400
O      3.296200    0.042200    0.011300
C      4.700300    0.176600    0.261900
C      5.445600   -0.639000   -0.776600
