25

O     -1.224800   -0.317100   -3.128700
C     -1.214300   -0.285200   -1.900100
C     -2.497800   -0.080700   -1.166700
C     -2.683500   -0.520000    0.151800
C     -3.901600   -0.296700    0.797900
C     -4.939600    0.353000    0.130900
C     -4.768000    0.775300   -1.186300
C     -3.552700    0.555600   -1.836400
C      0.015600   -0.412100   -1.127200
N      0.823100   -1.477800   -1.255500
N      1.812500   -1.210200   -0.369800
N      1.673300   -0.069900    0.351400
C      0.561500    0.478100   -0.161000
C      0.076500    1.779300    0.286700
C      0.105800    2.107500    1.649400
C     -0.375300    3.341600    2.091400
C     -0.882600    4.260500    1.174900
C     -0.901900    3.951200   -0.183900
C     -0.420300    2.717500   -0.628800
C      2.912900   -2.087500   -0.183800
C      3.010700   -3.263700   -0.941600
C      4.094400   -4.124300   -0.755200
C      5.079700   -3.816200    0.182600
C      4.987000   -2.646800    0.937200
C      3.906700   -1.780400    0.757200
