21

O      0.997000   -1.142100    1.794300
C      1.861100   -0.853300    0.965800
C      3.266700   -0.893700    1.352800
C      3.840400   -1.314500    2.541900
C      5.237800   -1.123800    2.420600
C      5.439800   -0.588800    1.171100
Br     7.127500   -0.113300    0.435600
O      4.255400   -0.441500    0.521700
N      1.534300   -0.583300   -0.368300
C      2.434900   -0.667400   -1.486100
C      1.504500   -0.634100   -2.681400
N      0.248500   -0.038300   -2.184000
C      0.339400   -0.094500   -0.890500
S     -0.925100    0.481500    0.139700
C     -2.294400    0.567200   -1.043600
C     -3.574600    0.988800   -0.378300
C     -4.387800    0.072400    0.295800
C     -5.561600    0.507300    0.904200
C     -5.885200    1.851100    0.819700
N     -5.126300    2.767800    0.182700
C     -3.987700    2.317900   -0.393100
