23

O     -0.721300   -0.173200    2.130300
C     -1.220900    0.246700    1.088200
C     -0.846000    1.603400    0.642600
C     -1.839900    2.594900    0.699900
C     -1.560200    3.888400    0.265500
C     -0.293300    4.192300   -0.225000
C      0.697500    3.206300   -0.269200
C      0.448200    1.896900    0.178500
C      1.545400    0.924000    0.098200
N      2.514900    0.934600   -0.801200
C      3.329100   -0.128800   -0.498300
C      4.491500   -0.581900   -1.138200
C      5.145600   -1.708600   -0.622600
C      4.652400   -2.368400    0.506400
C      3.494200   -1.928600    1.158100
C      2.864400   -0.804400    0.621300
N      1.742700   -0.110000    0.988700
N     -2.102300   -0.483500    0.307600
C     -2.542100   -0.110000   -1.043800
C     -2.847500   -1.353400   -1.885700
O     -3.851100   -2.199200   -1.307800
C     -3.862700   -2.200800    0.127500
C     -2.525900   -1.807900    0.760900
