28

Si     3.844900    0.499200    2.124500
C      5.731700    0.831500    1.990900
C      6.122100    0.944500    0.702000
C      5.071900    0.796200   -0.258000
C      5.095300    0.851200   -1.625500
S      3.510500    0.604200   -2.273900
C      2.799300    0.416400   -0.708300
C      3.766900    0.551600    0.243300
C      1.361300    0.167200   -0.582200
C      0.522200    1.283600   -0.577800
C     -0.865200    1.119500   -0.441900
S     -1.995600    2.416200   -0.414900
C     -3.276300    1.354900   -0.270900
C     -2.939900    0.016300   -0.231900
C     -4.028400   -0.885500   -0.143300
N     -5.345800   -0.543500   -0.071200
C     -5.688100    0.760000   -0.093600
C     -6.939600    1.407400   -0.037200
C     -6.672200    2.759800   -0.106700
O     -5.329800    2.983900   -0.202400
C     -4.753300    1.758700   -0.191300
C     -1.472900   -0.139600   -0.305400
C     -0.585400   -1.291500   -0.274900
C     -1.075700   -2.606800   -0.084600
C     -0.234200   -3.721600   -0.069400
C      1.128100   -3.559200   -0.241200
C      1.648400   -2.279500   -0.415700
C      0.825300   -1.126300   -0.428000
