22

O     -0.281700   -0.943600    2.667500
C     -0.628600   -0.500100    1.572300
C     -1.834400   -1.110000    0.961900
C     -2.914800   -1.471900    1.769800
C     -4.025300   -2.083500    1.193300
C     -4.007100   -2.326900   -0.171500
N     -2.969100   -2.012100   -0.977700
C     -1.899300   -1.418500   -0.390900
N      0.111600    0.449300    0.852900
C      1.508500    0.657200    1.267600
C      2.505500   -0.173400    0.483800
C      2.413000   -1.572700    0.444800
C      3.344100   -2.328500   -0.270300
C      4.386300   -1.697200   -0.944900
C      4.503900   -0.310100   -0.898400
C      3.573600    0.447000   -0.183700
C     -0.472800    1.416100   -0.031600
C     -1.781700    1.882300    0.164700
C     -2.344500    2.832100   -0.693500
C     -1.604600    3.337100   -1.757700
C     -0.300500    2.896900   -1.959800
C      0.261900    1.948300   -1.099800
