21

O      0.209600   -2.143200    0.816400
C      0.818300   -1.316200    0.139500
C      2.268000   -1.277200    0.158100
C      3.092100   -0.986700    1.226900
C      4.471900   -1.098400    0.887600
C      4.650900   -1.511400   -0.414500
S      3.161700   -1.778400   -1.215000
N      0.128700   -0.382500   -0.651900
C      0.765100    0.834400   -1.177000
C      0.513600    1.972900   -0.254300
C      1.174700    2.467400    0.851100
C      0.422200    3.578900    1.301700
C     -0.644700    3.694700    0.442400
O     -0.596700    2.725400   -0.506800
C     -1.342500   -0.442900   -0.742700
C     -1.879200   -1.763700   -1.323100
C     -3.397700   -1.650000   -1.276300
S     -3.764800   -0.716300    0.202700
O     -4.521000    0.458400   -0.182700
O     -4.230300   -1.623900    1.230000
C     -2.092200   -0.217800    0.573000
