19

O      3.599600   -1.336700    1.569700
C      3.230400   -0.508700    0.733200
C      4.245900    0.261300   -0.008200
C      5.633900    0.295900    0.379000
N      6.450700    1.014300   -0.393400
S      5.462900    1.603600   -1.605100
N      3.997600    0.952200   -1.134100
N      1.867500   -0.308900    0.494500
C      1.288100    0.800600   -0.274100
C     -0.186600    1.091700    0.072600
N     -1.016200   -0.117700   -0.024600
C     -2.389400   -0.044600   -0.212700
C     -3.111400    1.142800   -0.007500
C     -4.497000    1.213800   -0.202400
C     -5.201900    0.090700   -0.616100
C     -4.518800   -1.098600   -0.834600
C     -3.133800   -1.159500   -0.635300
C     -0.376800   -1.402500    0.309600
C      0.907000   -1.208500    1.136200
