23

O      1.920000    2.702600    1.571400
C      1.784800    1.656900    0.928900
C      2.974400    0.893000    0.457700
N      2.935100   -0.401900   -0.022700
C      4.186700   -0.692200   -0.289200
N      4.722400   -1.843800   -0.795100
C      6.011800   -1.847400   -0.947800
C      6.944400   -0.728200   -0.630700
C      6.360300    0.374800   -0.143300
N      4.982600    0.409100    0.032900
N      4.216900    1.411800    0.500400
N      0.500500    1.170900    0.646700
C     -0.652900    1.847000    1.239900
C     -1.814900    0.885000    1.544800
N     -2.221600    0.115100    0.355500
C     -3.529600   -0.328500    0.219300
C     -4.345100   -0.567500    1.338900
C     -5.664800   -1.020400    1.216500
C     -6.208200   -1.250100   -0.040700
C     -5.428900   -1.029100   -1.169100
C     -4.109300   -0.577600   -1.035700
C     -1.262000    0.039500   -0.756300
C      0.197100    0.054800   -0.256600
