18

O      4.025900   -0.146300   -1.590200
C      3.978100    0.385800   -0.494200
C      3.367900   -0.168600    0.776500
C      2.185600   -1.057300    0.484800
C      2.287100   -2.393500    0.564400
C      1.170300   -3.313300    0.299400
O      1.322300   -4.525500    0.397700
O     -0.039000   -2.741700   -0.049300
C     -0.184700   -1.341800   -0.132700
C     -1.460300   -0.877800   -0.484400
C     -1.739500    0.492300   -0.586700
N     -3.000200    0.975700   -0.952000
C     -3.336100    2.368500   -0.659600
C     -4.132100    0.051500   -1.008300
C     -0.654000    1.352000   -0.340500
C      0.625600    0.882000    0.010600
C      0.880000   -0.483900    0.123500
O      4.558100    1.588000   -0.297400
