32

Si     5.302700   -0.474700    1.769400
C      7.187800   -0.174600    1.582700
C      7.474800    0.435700    0.411800
C      6.339800    0.716100   -0.412900
C      6.253500    1.320000   -1.637800
S      4.608800    1.399100   -2.163600
C      4.013400    0.616200   -0.738200
C      5.066600    0.324400    0.079100
C      2.585200    0.359800   -0.584000
C      2.105200   -0.942800   -0.514400
C      0.734100   -1.192100   -0.343700
C     -0.239700   -0.173200   -0.205800
C      0.276200    1.146800   -0.344800
C      1.667400    1.404800   -0.508000
C     -0.737600    2.136500   -0.289700
C     -0.458700    3.486500   -0.335400
S     -1.861100    4.442700   -0.147800
C     -2.849800    3.051400   -0.006400
C     -2.161300    1.870500   -0.197600
C     -2.769100    0.571700   -0.142800
C     -4.241500    0.258600   -0.201200
C     -5.258700    1.128400   -0.638600
N     -6.599700    0.885700   -0.666500
C     -7.006100   -0.329700   -0.265900
C     -6.135600   -1.319100    0.130800
C     -4.754300   -1.020700    0.135900
C     -3.723100   -1.919100    0.464700
C     -3.904700   -3.210300    0.903800
N     -2.663100   -3.725500    1.171400
C     -1.700100   -2.777300    0.910400
C     -2.315500   -1.655400    0.395100
C     -1.697300   -0.425200    0.003500
