19

O     -3.852500   -2.818400   -0.145300
C     -2.655100   -2.970400    0.027100
C     -1.573300   -2.026000   -0.396900
C     -1.325000   -1.006000    0.705100
C     -0.242000   -0.007700    0.316200
C     -0.602700    1.201100   -0.366700
C      0.415100    2.126200   -0.692700
C      0.103400    3.328700   -1.351700
C     -1.206500    3.636800   -1.707700
C     -2.221700    2.741900   -1.410400
C     -1.923900    1.544800   -0.752600
C      1.745400    1.845800   -0.363500
C      2.116000    0.656300    0.272500
C      3.471800    0.417800    0.559800
C      3.880800   -0.759800    1.179200
C      2.936300   -1.715900    1.516100
C      1.585300   -1.488000    1.238200
C      1.130600   -0.296700    0.616600
O     -2.182900   -4.043900    0.687500
