20

O      1.277400    1.324600    0.695900
C      0.962700    0.138300    0.653400
C     -0.460100   -0.364900    0.502100
C     -1.475600    0.777900    0.474300
C     -2.940400    0.299600    0.472600
C     -3.879800    1.511100    0.607200
C     -5.350000    1.102300    0.576600
C     -5.681300    0.299100   -0.675600
C     -4.764700   -0.910200   -0.818500
C     -3.289900   -0.512800   -0.785200
N      1.884400   -0.890200    0.741600
N      3.240000   -0.544300    0.645800
C      4.051300   -1.320800   -0.159600
O      3.709500   -2.410400   -0.612100
C      5.379600   -0.724700   -0.455900
C      6.297100   -1.421500   -1.227200
N      7.519900   -0.914000   -1.529100
C      7.776900    0.316700   -1.027000
C      6.857900    1.013500   -0.256700
N      5.637300    0.515600    0.050500
