21

O     -2.127700    1.114900   -1.942400
C     -2.294400    0.105500   -1.271000
C     -1.287900   -1.034900   -1.237400
C      0.004500   -0.698400   -1.982700
C      0.943600   -1.893100   -2.162700
S      1.491500   -2.668500   -0.607200
C      2.691600   -1.551400   -0.077300
N      3.060000   -0.435200   -0.653400
C      4.036300    0.076800    0.167900
C      4.781800    1.257900    0.045900
C      5.731300    1.557500    1.031300
C      5.934500    0.699200    2.115400
C      5.200400   -0.484600    2.255600
C      4.260700   -0.758200    1.260100
N      3.383300   -1.795200    1.072000
N     -3.399600   -0.177400   -0.481900
C     -4.480000    0.620900   -0.263600
N     -4.717100    1.782400   -0.756800
C     -5.978100    2.299100   -0.189700
C     -6.857300    1.141200    0.260000
S     -5.654600   -0.091500    0.799900
