25

O     -2.585900    0.605200   -2.467300
C     -2.729300    1.152800   -1.380400
C     -1.612000    1.315500   -0.370500
C     -0.294900    0.786900   -0.921400
S      1.081300    1.033600    0.255400
C      0.649100   -0.233500    1.501600
C      1.822400   -0.481000    2.442100
C      2.888200   -1.347100    1.801400
O      2.618000   -2.299700    1.076600
N      4.171300   -1.008600    2.168600
C      5.321300   -1.638300    1.557300
C      5.937400   -0.732000    0.522400
C      5.307000   -0.544900   -0.716700
C      5.859900    0.308900   -1.671800
C      7.047200    0.984900   -1.398600
C      7.681300    0.810000   -0.169700
C      7.128600   -0.042100    0.788400
N     -3.923800    1.682100   -0.943200
C     -5.150000    1.513700   -1.690600
C     -5.983800    0.407800   -1.097400
C     -5.699300   -0.931100   -1.403400
C     -6.451500   -1.962200   -0.839500
C     -7.491700   -1.666100    0.039300
C     -7.779000   -0.339700    0.357000
C     -7.027100    0.693600   -0.205400
