32

Si    -5.008800    2.231200   -0.034200
C     -6.905100    2.301700    0.243500
C     -7.408400    1.077000    0.511900
C     -6.442800    0.021300    0.529100
C     -6.593300   -1.319900    0.753200
S     -5.071800   -2.130500    0.641500
C     -4.206800   -0.670000    0.290600
C     -5.089900    0.371300    0.273800
C     -2.760700   -0.706100    0.087200
C     -2.193200   -1.474200   -0.921100
C     -0.806100   -1.477800   -1.103400
C      0.072500   -0.721300   -0.283700
C     -0.533600    0.069400    0.710100
C     -1.911000    0.059800    0.886800
N      0.158400    0.865900    1.518600
C      1.505300    0.933300    1.376700
C      2.298400    0.227400    0.468500
C      1.531300   -0.659200   -0.373200
C      2.430300   -1.385400   -1.216800
C      2.149000   -2.396200   -2.107100
O      3.285100   -2.836600   -2.719000
C      4.320100   -2.124200   -2.205300
C      3.854800   -1.234700   -1.267900
C      4.637900   -0.356400   -0.501600
C      6.064500   -0.258900   -0.623600
C      6.828900    0.610400    0.151600
C      6.108200    1.395000    1.071500
N      6.671400    2.287500    1.900000
S      5.443600    2.959300    2.778500
N      4.147300    2.152000    2.149000
C      4.596400    1.299000    1.209700
C      3.790800    0.390700    0.402800
