23

O      1.259200   -2.381600   -1.942800
C      0.818300   -1.250600   -1.759900
C      1.655400    0.006100   -2.006500
N      2.293500    0.459600   -0.766900
C      1.519000    1.265000    0.068300
O      0.354200    1.564200   -0.222400
C      2.072000    1.647800    1.421100
S      3.766700    2.232700    1.319700
C      4.422100    0.827200    0.447800
C      5.765600    0.494800    0.682700
C      6.357300   -0.573000    0.014400
C      5.609800   -1.310300   -0.894900
C      4.273400   -0.975900   -1.142400
C      3.653300    0.098600   -0.481600
N     -0.448200   -0.995700   -1.281000
C     -1.317200   -2.061500   -0.818700
C     -2.798500   -1.665300   -0.856300
C     -3.274300   -0.552800    0.064900
C     -2.572600   -0.050200    1.099300
C     -3.043200    1.088000    1.959800
C     -4.231200    1.841800    1.365500
C     -5.264000    0.870500    0.810500
C     -4.653600   -0.020700   -0.273700
