17

O     -1.026200    1.942700    1.186600
C     -0.614100    1.275800    0.241300
C      0.825300    1.426600   -0.282900
N      1.800000    0.827800    0.643300
C      3.155400    1.348700    0.381100
C      4.269300    0.432100    0.928100
N      4.274400   -0.913500    0.331100
C      2.928800   -1.318200   -0.105700
C      1.778500   -0.647000    0.677800
N     -1.345800    0.338300   -0.470200
C     -2.688000   -0.062900   -0.268200
C     -3.516900    0.487400    0.712400
C     -4.837100    0.045300    0.858900
C     -5.345000   -0.951000    0.028200
C     -4.532900   -1.511200   -0.954700
C     -3.215000   -1.069900   -1.100500
Cl    -2.243200   -1.800800   -2.335900
