22

O     -2.513800   -2.888800    1.849700
C     -1.990900   -2.450300    0.828100
C     -1.310000   -3.361800   -0.196200
O      0.103400   -3.451400   -0.014300
C      0.797500   -2.375800   -0.459000
O      0.321000   -1.403400   -1.020000
C      2.222000   -2.582400   -0.123200
C      3.132900   -1.602400   -0.013000
C      2.876800   -0.164400   -0.174800
C      3.328200    0.452700   -1.350500
C      3.111000    1.815900   -1.566100
C      2.442100    2.577000   -0.609800
C      1.991800    1.977100    0.566000
C      2.208600    0.613800    0.786600
Cl     1.645000   -0.060500    2.277300
N     -1.975900   -1.112700    0.502000
C     -2.418100   -0.127800    1.459900
C     -2.577800    1.170300    0.764700
C     -3.622800    1.752200    0.076000
C     -3.154300    3.010100   -0.373300
C     -1.856000    3.114800    0.067200
O     -1.497300    2.004500    0.761000
