20

O      2.777300   -2.397900    1.199400
C      1.899000   -1.681600    0.725700
C      0.463900   -2.196700    0.595600
O     -0.042700   -1.981200   -0.722500
C     -1.317800   -1.460900   -0.701800
C     -2.343400   -2.312100   -1.121600
C     -3.650800   -1.843900   -1.163900
C     -3.921200   -0.524500   -0.805400
C     -2.882400    0.338400   -0.409700
C     -3.135900    1.673800   -0.067100
C     -2.088700    2.508200    0.303800
C     -0.815300    1.977400    0.324900
N     -0.531300    0.691600    0.012700
C     -1.549600   -0.122600   -0.356300
N      2.020900   -0.372100    0.322200
C      3.139600    0.414900    0.343400
N      3.092600    1.681600   -0.006200
C      4.353400    2.236400    0.095200
C      5.343600    1.382200    0.527200
S      4.672300   -0.167400    0.812200
