20

O     -0.250600   -0.525100    2.978700
C     -0.826500   -0.778400    1.923000
C     -2.222500   -0.243000    1.605700
O     -2.469400   -0.294900    0.202800
C     -3.678300    0.173900   -0.230800
C     -4.707500    0.663000    0.575100
C     -5.899000    1.111500   -0.004000
C     -6.066600    1.072800   -1.387200
C     -5.042800    0.585300   -2.195300
C     -3.854000    0.137700   -1.616900
N     -0.292100   -1.593100    0.948600
C      1.076000   -2.070200    1.015600
C      2.105900   -0.997300    0.649800
S      1.900000   -0.454100   -1.085800
C      2.951300    1.033000   -1.061800
C      4.376900    0.728600   -0.786500
C      5.175800    0.863200    0.331500
C      6.463400    0.406300   -0.039300
C      6.371400    0.030800   -1.358500
O      5.111300    0.228200   -1.822500
