19

O      1.542600    1.186600   -2.404900
C      0.877400    0.807400   -1.445600
C     -0.647200    0.946200   -1.447300
O     -1.240900   -0.044200   -0.608200
C     -2.605500    0.002300   -0.478300
C     -3.450300    0.974800   -1.014500
C     -4.829400    0.910100   -0.781100
C     -5.370000   -0.122500   -0.013300
C     -4.534900   -1.100200    0.521000
C     -3.167700   -1.032200    0.280600
O     -2.377300   -2.020500    0.802000
N      1.362900    0.284500   -0.258500
C      2.701700    0.044000    0.100900
C      2.933300   -0.505000    1.369700
C      4.235100   -0.774700    1.803600
C      5.312800   -0.495700    0.968600
Cl     6.915100   -0.825800    1.498800
C      5.097100    0.049500   -0.293600
C      3.793100    0.318800   -0.726200
