23

O      0.377300   -1.045700    2.240500
C     -0.207400   -0.117600    1.673200
C      0.454500    1.226300    1.641800
S      1.670000    1.289900    0.359600
O      2.429700    2.504600    0.609400
O      0.972500    1.119700   -0.903800
C      2.730500   -0.131300    0.651200
C      3.918100   -0.065900   -0.274800
C      5.108000    0.554300    0.133200
C      6.206300    0.612400   -0.725600
C      6.126600    0.054800   -1.999800
C      4.947700   -0.558500   -2.418900
C      3.847600   -0.617600   -1.562500
N     -1.448900   -0.284400    1.080500
C     -2.156800   -1.548100    1.286200
C     -2.853400   -2.018600    0.013000
C     -3.741000   -0.939400   -0.546000
C     -4.843200   -1.274800   -1.343500
C     -5.647800   -0.275900   -1.888900
C     -5.351900    1.063300   -1.649600
C     -4.248700    1.405400   -0.866700
C     -3.430000    0.410500   -0.310800
C     -2.237000    0.819500    0.520900
