23

O      0.667800   -2.381000   -0.669000
C      0.222500   -1.235700   -0.630500
C     -1.261100   -1.027500   -0.761200
S     -1.616900    0.219200   -1.964300
O     -1.115100   -0.234500   -3.247900
O     -1.144300    1.482900   -1.417000
C     -3.404100    0.261400   -2.088800
C     -4.040700    0.356600   -0.729400
C     -4.017600    1.558600   -0.007200
C     -4.596700    1.635100    1.259900
C     -5.211600    0.515600    1.815600
C     -5.253100   -0.680700    1.103100
C     -4.674400   -0.760800   -0.164200
N      0.940200   -0.089500   -0.365500
C      2.289200   -0.099200   -0.141000
N      3.104000   -1.112700   -0.033000
C      4.387600   -0.648900    0.196100
C      5.538700   -1.445800    0.359000
C      6.778400   -0.839500    0.587400
C      6.883400    0.546500    0.655500
C      5.757100    1.360500    0.497700
C      4.517400    0.740800    0.268400
S      2.965900    1.455200    0.036500
