20

O      0.790400   -1.243700   -3.124200
C      0.704100   -0.141400   -2.588900
C      1.625900    0.995100   -3.026500
S      2.003600    2.175200   -1.693300
C      2.764800    1.095900   -0.572100
N      3.498200    0.101500   -0.935200
C      3.909400   -0.650100    0.269700
C      3.893500    0.264800    1.485400
S      2.529700    1.385700    1.123300
N     -0.231600    0.225600   -1.634400
C     -1.222000   -0.576800   -1.009900
C     -1.425800   -1.901900   -1.386900
C     -2.407500   -2.629100   -0.746600
N     -3.189700   -2.136900    0.230800
C     -3.003600   -0.864700    0.607100
C     -3.817800   -0.376700    1.620100
C     -3.707800    0.929700    2.095300
C     -2.758500    1.776100    1.547300
C     -1.928100    1.311200    0.526200
C     -2.028900   -0.017700    0.027100
