31

Si     4.854400   -0.164700   -1.910800
C      6.735600    0.162200   -1.769900
C      7.051100    0.720900   -0.580800
C      5.940000    0.940500    0.293500
C      5.887100    1.485000    1.547500
S      4.261200    1.511500    2.131700
C      3.628200    0.783100    0.693100
C      4.656800    0.548500   -0.173200
C      2.201200    0.512600    0.582000
C      1.719000   -0.772700    0.423500
N      0.406000   -1.092700    0.288500
C     -0.544600   -0.131200    0.312800
C     -0.125300    1.215800    0.478200
C      1.253800    1.526800    0.610300
C     -1.192100    2.155300    0.490500
C     -0.985800    3.509400    0.642700
S     -2.448300    4.389200    0.617900
C     -3.368400    2.957800    0.404500
C     -2.600100    1.815200    0.349000
C     -3.079600    0.491900    0.180500
C     -4.460400    0.086300    0.033400
S     -5.954000    0.984400    0.006100
C     -6.932500   -0.400000   -0.206200
C     -6.194200   -1.556600   -0.263200
C     -4.829700   -1.246600   -0.127000
C     -3.783400   -2.202200   -0.140400
C     -3.853800   -3.553100   -0.279000
O     -2.576000   -4.034800   -0.227300
C     -1.743900   -2.957300   -0.055700
C     -2.457500   -1.775600    0.004300
C     -1.957400   -0.458100    0.172700
