23

O      1.652600    0.436500    2.225000
C      1.024700   -0.406400    1.585900
C      1.482000   -1.836700    1.484400
S      1.952700   -2.317600   -0.200800
C      3.104800   -1.010800   -0.514500
N      4.258000   -1.017400    0.171600
C      5.068200    0.038000   -0.031000
C      4.764800    1.078300   -0.877600
C      3.558100    0.980100   -1.527900
N      2.711800   -0.052200   -1.366000
N     -0.153000   -0.022200    0.893800
C     -1.270000   -0.785400    0.544600
C     -2.122100   -0.011400   -0.223900
C     -1.588100    1.295600   -0.286300
C     -2.032100    2.494800   -0.882900
C     -1.274500    3.660700   -0.752300
C     -0.084200    3.644300   -0.038800
C      0.376000    2.467200    0.558900
C     -0.392900    1.289800    0.437600
C     -3.415200   -0.507400   -0.786400
C     -3.529000   -2.033900   -0.677300
C     -3.059400   -2.530100    0.695900
C     -1.577900   -2.194900    0.947700
