20

O     -1.159700   -0.092300   -2.434700
C     -0.598600   -0.093000   -1.344700
N     -1.245800    0.095900   -0.129900
C     -2.647400    0.154000    0.073500
C     -3.579100   -0.506300   -0.741600
F     -3.186600   -1.335100   -1.717800
C     -4.948100   -0.411200   -0.503900
C     -5.399600    0.333700    0.573800
F     -6.714200    0.422600    0.810700
C     -4.508700    0.969600    1.427900
C     -3.137200    0.869900    1.182300
Br    -1.958500    1.754000    2.387500
C      0.864200   -0.209700   -1.214200
C      1.635500   -0.532200   -0.061200
C      2.936900   -0.501900   -0.492300
C      4.189300   -0.794900    0.367700
C      5.359400    0.149800    0.286200
C      4.516200    0.109200    1.527300
O      2.963000   -0.192500   -1.812100
N      1.672900   -0.011600   -2.269600
