23

O      2.382300   -1.937600   -0.157900
C      1.903900   -0.984800    0.446000
N      2.660300   -0.061500    1.141400
C      4.097600   -0.202200    1.242300
C      4.742000    0.823000    2.198700
C      5.818500    1.488700    1.321700
C      5.126600    2.413600    0.307200
C      4.482000    1.425300   -0.674500
C      4.857900    0.053000   -0.083200
C      6.271000    0.329200    0.434900
C      0.428500   -0.791200    0.494200
C     -0.146300    0.478800    0.625500
C     -1.537400    0.618100    0.663100
C     -2.370800   -0.505300    0.556500
C     -3.878200   -0.353200    0.618200
N     -4.579200   -1.032800   -0.480400
C     -4.363900   -0.388500   -1.794900
C     -5.530000    0.510700   -2.236000
O     -6.782000   -0.182900   -2.325500
C     -6.858400   -1.321400   -1.456500
C     -6.023300   -1.140800   -0.181400
C     -1.784900   -1.773000    0.419200
C     -0.396100   -1.914700    0.378600
