21

O      1.136200    1.372600    0.498800
C      1.130500    0.214200    0.094200
N      2.274900   -0.537200   -0.148500
C      3.619500   -0.136900    0.014300
C      4.606100   -1.083600   -0.299400
C      5.963800   -0.773900   -0.167900
C      6.344000    0.487500    0.279000
Cl     8.012000    0.871900    0.441800
C      5.377300    1.437100    0.594000
C      4.018500    1.125100    0.461800
C     -0.150800   -0.483200   -0.171300
C     -0.327400   -1.778200   -0.626500
S     -1.993100   -2.147800   -0.784100
C     -2.405200   -0.567900   -0.239600
C     -3.805300   -0.113000   -0.104700
C     -4.918500   -0.916400   -0.404300
C     -6.221800   -0.427500   -0.256000
C     -6.435900    0.872300    0.194200
C     -5.348900    1.685900    0.496900
C     -4.048100    1.196500    0.348300
N     -1.360100    0.185300    0.041400
