20

O      0.020500   -2.104700   -0.512600
C     -0.137200   -0.928500   -0.226000
N      0.817000    0.017300    0.017100
C      2.215100   -0.121300   -0.000400
C      2.873200   -1.332800   -0.289700
C      4.272400   -1.410600   -0.292200
C      4.981000   -0.267000   -0.003500
C      4.347100    0.917700    0.279500
C      2.971300    1.023800    0.289300
O      5.222900    1.926200    0.537100
C      6.481900    1.237300    0.383100
O      6.334700   -0.156000    0.039700
O     -1.352000   -0.336500   -0.095200
C     -2.452600   -1.219400   -0.324700
C     -3.722000   -0.427400   -0.145500
C     -4.296300    0.251000   -1.229700
C     -5.461800    1.000000   -1.058600
C     -6.058900    1.085000    0.197800
C     -5.489400    0.425300    1.285300
C     -4.324000   -0.324300    1.116500
