22

O      1.992500    2.313200   -0.009200
C      1.719800    1.118400   -0.032700
N      2.644500    0.128400   -0.304200
C      4.053800    0.443800   -0.489800
C      4.745700    0.685000    0.863700
C      6.245500    0.378900    0.848200
C      6.855000    0.589600   -0.530500
C      6.211300   -0.316800   -1.581100
C      4.752000   -0.664200   -1.278800
C      0.338000    0.660300    0.282300
C     -0.463100    1.472200    1.093600
C     -1.766200    1.082600    1.414500
C     -2.292800   -0.117100    0.915700
C     -3.700600   -0.546900    1.279400
N     -4.508800   -0.940700    0.115800
C     -5.723500   -1.661300    0.555000
C     -6.831200   -1.612000   -0.506300
O     -7.302500   -0.278700   -0.744600
C     -6.296500    0.721000   -0.530600
C     -4.866500    0.203000   -0.753500
C     -1.485400   -0.923600    0.098300
C     -0.181900   -0.535900   -0.224900
