24

O      1.675000    1.508200   -2.632800
C      1.441400    1.016200   -1.534800
N      0.292200    0.360900   -1.156400
C     -0.833400    0.034800   -1.941700
C     -0.921400    0.263400   -3.314700
C     -2.068700   -0.117700   -4.013000
C     -3.128000   -0.726700   -3.343700
C     -3.047800   -0.958400   -1.969200
C     -1.904200   -0.584800   -1.249000
N     -1.784900   -0.770000    0.154400
C     -2.515200    0.290900    0.894400
C     -2.622400   -0.100200    2.376000
O     -3.370300   -1.307200    2.596700
C     -3.377500   -2.190000    1.464300
C     -2.082300   -2.141300    0.638500
C      2.468900    1.157700   -0.461800
C      3.316200    2.289000   -0.495400
C      4.299100    2.477600    0.481700
C      4.413300    1.519300    1.464500
C      3.600700    0.409500    1.493000
C      2.622200    0.192800    0.545200
O      3.886300   -0.414600    2.537000
C      4.975800    0.300000    3.158400
O      5.308000    1.533200    2.487800
