18

O     -1.573100   -2.294500   -0.962600
C     -0.878400   -1.337300   -0.632900
N     -1.390400   -0.119900   -0.243300
C     -2.723000    0.262500   -0.100500
C     -3.812100   -0.576600   -0.286100
C     -5.095200   -0.060800   -0.105200
C     -5.252800    1.270100    0.255400
C     -4.112600    2.033900    0.422400
N     -2.857400    1.559900    0.254700
C      0.571600   -1.399900   -0.642600
O      1.130400   -2.442200   -1.336800
N      2.513400   -2.371200   -1.281200
C      2.775800   -1.297900   -0.539200
C      1.597300   -0.649100   -0.097700
C      1.626500    0.563100    0.762900
C      3.012800    0.762400    1.404800
C      4.155500    0.551100    0.396200
C      4.155100   -0.874300   -0.184100
