24

O     -1.508900   -0.726600   -1.589500
C     -1.189200    0.275000   -0.955700
N      0.085400    0.571200   -0.508400
C      1.201800   -0.219400   -0.603200
N      2.364000    0.222500   -0.183800
C      3.336800   -0.755600   -0.357700
C      4.723800   -0.510000    0.029600
C      5.651400   -1.542800    0.189500
C      6.947400   -1.219700    0.561800
N      7.375000    0.040000    0.782800
C      6.464700    1.023100    0.630100
C      5.148200    0.801600    0.262400
C      2.870700   -1.925700   -0.926400
S      1.187200   -1.800500   -1.225100
C     -2.210100    1.395200   -0.635100
C     -2.373200    1.625800    0.865800
O     -2.979300    0.505300    1.515400
C     -4.063100    0.049800    0.811000
C     -4.931900   -0.808300    1.482600
C     -6.067200   -1.295600    0.833200
C     -6.329000   -0.927500   -0.487500
C     -5.450900   -0.079200   -1.164000
C     -4.311700    0.399100   -0.519300
O     -3.483700    1.208200   -1.253400
