23

Si    -4.321200   -0.386400    1.502400
C     -6.198800   -0.281700    1.144900
C     -6.436800   -0.043200   -0.163300
C     -5.265100    0.075100   -0.976100
C     -5.133000    0.316300   -2.314900
S     -3.468300    0.357800   -2.764000
C     -2.907500    0.055300   -1.141600
C     -1.526900   -0.047700   -0.855500
C     -0.955900   -1.129100   -0.285600
C      0.489100   -0.971400   -0.061400
C      1.343700   -1.899100    0.495900
N      2.666300   -1.705000    0.687100
C      3.158400   -0.497700    0.287500
C      4.479100   -0.067000    0.378700
Si     6.081900   -0.790500    1.004600
C      6.931000    0.867300    0.491900
C      6.052000    1.739100   -0.048200
C      4.736400    1.198800   -0.092800
S      3.324400    1.920000   -0.679600
C      2.371300    0.517500   -0.293600
C      1.011500    0.267300   -0.467600
Si    -0.292800    1.351900   -1.186000
C     -4.006100   -0.072500   -0.335100
