15

O      0.633700   -0.404400   -1.587000
C      0.725600    0.007500   -0.438500
N      1.941400    0.343900    0.119000
C      3.168200    0.117300   -0.650900
C      4.427700    0.704500   -0.024100
F      5.527500    0.373800   -0.735000
F      4.370200    2.052000    0.047200
F      4.596300    0.234400    1.235000
N     -0.295500    0.206600    0.447400
C     -1.654900   -0.052300    0.274600
C     -2.192600   -0.696100   -0.831100
C     -3.570500   -0.903400   -0.883500
C     -4.367300   -0.466600    0.165700
C     -3.747700    0.161200    1.230700
N     -2.414900    0.374000    1.308000
