17

O     -1.209100    0.715900   -2.590600
C     -1.160600    0.399200   -1.412200
N     -0.016500    0.285900   -0.662100
C      1.268000    0.671800   -1.183400
C      2.368200    0.293200   -0.231000
C      2.853300    1.218500    0.703900
C      3.856200    0.854800    1.604100
C      4.377600   -0.437500    1.583900
C      3.895200   -1.368900    0.666300
C      2.892500   -1.007300   -0.234700
C     -2.443200    0.096500   -0.631900
C     -3.689800   -0.021300   -1.418400
C     -4.808900   -0.286900   -0.740500
C     -4.769800   -0.450200    0.726400
O     -5.790800   -0.694800    1.357600
N     -3.536300   -0.311100    1.313500
N     -2.362900   -0.039300    0.660700
