20

O     -0.073700   -1.453300    1.395300
C      0.132000   -0.560800    0.583600
N      1.402800   -0.171400    0.233000
C      2.547700   -0.901000    0.737100
C      3.833700   -0.414200    0.105400
C      5.055700   -0.702300    0.708700
C      6.226700   -0.271600    0.091500
C      6.149600    0.424300   -1.108800
C      4.897500    0.661500   -1.649700
N      3.741600    0.257600   -1.077700
N     -0.809300    0.198600   -0.072800
C     -2.211600    0.074700   -0.022900
C     -2.878200   -0.970900    0.645100
C     -4.277700   -1.046100    0.654300
C     -4.978500   -0.067800   -0.012600
C     -4.336800    0.952600   -0.670100
C     -2.960600    1.051500   -0.695700
O     -5.205600    1.813000   -1.266500
C     -6.468700    1.215800   -0.904400
O     -6.331200    0.019400   -0.110600
