20

O      0.229500   -0.031600    1.321100
C      0.337700   -0.280300    0.127600
N      1.316100   -1.092900   -0.396900
C      2.350100   -1.637000    0.455400
C      3.575600   -0.770500    0.455100
C      4.653600   -1.023200   -0.398800
C      5.764200   -0.184300   -0.375300
C      5.758200    0.888000    0.500600
N      4.734200    1.170200    1.332500
C      3.666000    0.340100    1.289400
N     -0.480400    0.211900   -0.865200
C     -1.644300    1.011100   -0.568500
C     -2.900800    0.185300   -0.323400
C     -3.209200   -0.301600    0.959100
C     -4.349700   -1.073600    1.193700
C     -5.208900   -1.381200    0.143100
C     -4.924900   -0.920700   -1.139400
C     -3.781600   -0.149800   -1.367800
C     -1.488100    2.334700    0.156800
C     -1.789100    2.334000   -1.306300
