15

O     -1.092800   -0.926600    0.888700
C     -0.915900    0.116900    0.264400
N     -1.981600    0.953700   -0.015200
C     -3.333200    0.652300    0.405500
C     -3.995400   -0.440900   -0.434800
O     -5.392000   -0.510200   -0.160600
C      0.381200    0.559600   -0.233200
S      0.551400    2.019900   -1.143000
C      2.241500    1.814100   -1.323700
C      2.668400    0.674400   -0.695500
C      1.608600   -0.057300   -0.097900
O      1.786700   -1.231200    0.557200
C      3.072800   -1.795100    0.251400
C      4.179900   -0.736400    0.297600
O      3.969800    0.299900   -0.679100
