25

O      0.176100    1.001700   -0.538600
C      0.096900    0.081900    0.276800
N      1.195600   -0.585900    0.835900
N      2.495800   -0.159400    0.759300
C      2.905500    0.289000   -0.385400
C      4.267000    0.816100   -0.563000
C      4.669300    1.297500   -1.807700
C      5.962900    1.793100   -1.955600
C      6.802300    1.786800   -0.851100
N      6.439300    1.327100    0.366800
C      5.174600    0.851000    0.485800
C     -1.265800   -0.516000    0.800200
O     -0.983800   -1.157600    2.071200
C     -1.725500   -1.573500   -0.218000
C     -2.108800   -1.181200   -1.515600
C     -2.524200   -2.123700   -2.458000
C     -2.561700   -3.474400   -2.122900
C     -2.183300   -3.883900   -0.846700
C     -1.767400   -2.942700    0.098200
C     -2.341100    0.542800    1.117300
C     -3.686100    0.151400    1.284700
C     -4.674100    1.076500    1.629500
C     -4.337900    2.410500    1.833100
C     -3.013800    2.816900    1.700100
C     -2.023400    1.892000    1.355700
