23

O      1.303600    3.441700    1.788800
C      1.973100    3.258100    0.789000
O      3.175000    3.850200    0.638600
C      1.592500    2.412400   -0.369900
C      2.465100    2.183500   -1.441600
C      2.075400    1.348100   -2.494000
C      0.813100    0.725900   -2.487400
C      0.426700   -0.237700   -3.587200
S      1.199900   -1.872500   -3.373700
C      0.169000   -2.492600   -2.126800
N     -0.965400   -3.126600   -2.351600
N     -1.511000   -3.410700   -1.116100
C     -0.669200   -2.925000   -0.223000
C     -0.753500   -2.933900    1.258100
C     -1.217100   -1.612200    1.831500
C     -0.311900   -0.759300    2.485400
C     -0.746300    0.458500    3.011300
C     -2.085400    0.836300    2.884600
C     -2.991900    0.002200    2.228800
C     -2.562300   -1.218600    1.706100
O      0.430600   -2.338000   -0.789600
C     -0.061900    0.975500   -1.418000
C      0.324000    1.815700   -0.369900
