23

O     -3.963500    1.910900    3.297600
C     -4.197600    1.704800    2.120800
O     -5.317800    2.169600    1.540800
C     -3.337800    0.945900    1.181300
C     -2.142300    0.404700    1.660900
C     -1.298100   -0.333600    0.813800
C     -1.645300   -0.542200   -0.525900
N     -0.831600   -1.284300   -1.434500
N     -1.081000   -1.213400   -2.774400
N     -0.126900   -1.899800   -3.378600
N      0.725700   -2.454600   -2.472200
C      0.273100   -2.113300   -1.285400
S      0.948200   -2.714400    0.189100
C      2.699100   -2.288300   -0.062400
C      2.950300   -0.803800   -0.005000
C      3.005000   -0.033200   -1.174700
C      3.219200    1.345600   -1.102100
C      3.380800    1.969900    0.136200
C      3.333100    1.212400    1.303800
C      3.116400   -0.162300    1.226000
F      3.063200   -0.874100    2.362900
C     -2.840600    0.028700   -1.006800
C     -3.681700    0.761700   -0.159500
