18

O     -1.515800    3.059100   -0.720200
C     -2.038600    2.031300   -0.321900
O     -3.071600    2.079600    0.536600
C     -1.626700    0.629000   -0.713600
C     -2.785900   -0.110900   -1.405900
C     -3.570000   -1.005000   -0.448800
C     -2.688300   -2.051800    0.233100
C     -1.222100   -1.635700    0.351900
C     -1.074800   -0.119000    0.514300
C      0.374200    0.281300    0.796900
O      0.640300    0.918100    1.813000
N      1.274300   -0.113100   -0.161100
C      2.650900    0.109300   -0.203500
C      3.364900    0.809200    0.758300
C      4.741300    0.961000    0.593900
C      5.361100    0.412400   -0.520200
C      4.572600   -0.269400   -1.428700
N      3.237300   -0.432300   -1.294100
