15

O      4.895500    0.902100   -1.575400
C      4.963000    0.409100   -0.463000
O      6.158700    0.203400    0.123900
C      3.825200   -0.036000    0.415400
C      2.471600    0.198300   -0.252300
C      1.320500   -0.256200    0.645900
C     -0.033400   -0.020800   -0.024100
C     -1.185700   -0.475200    0.873600
N     -2.471800   -0.252600    0.239400
C     -3.063700   -1.151400   -0.598300
O     -2.636400   -2.252900   -0.909400
C     -4.350200   -0.572100   -1.105900
C     -4.415100    0.812300   -0.488400
C     -3.160900    0.921000    0.326000
O     -2.831900    1.918100    0.950900
