23

O      5.754400    0.894200    1.410800
C      5.300500   -0.146100    0.966100
O      5.390700   -1.287500    1.676500
C      4.660300   -0.360200   -0.376100
C      4.033800    0.916000   -0.925200
S      2.518000    1.414900   -0.039000
C      1.354000    0.281100   -0.656900
N      1.614000   -0.577000   -1.615100
N      0.447500   -1.197000   -1.952300
C     -0.517300   -0.739200   -1.173100
C     -1.879700   -1.278100   -1.179200
C     -2.549300   -1.437500   -2.400700
C     -3.845000   -1.957100   -2.439400
C     -4.479400   -2.334900   -1.257900
C     -3.816500   -2.203200   -0.039200
C     -2.519800   -1.684600    0.000300
N      0.003400    0.253600   -0.336500
C     -0.710900    1.065800    0.591300
C     -0.165300    1.366900    1.845800
C     -0.880600    2.155800    2.750100
C     -2.139500    2.646500    2.410200
C     -2.688600    2.349100    1.165100
C     -1.979700    1.560900    0.255900
