18

O     -1.863400    1.748900    1.670400
C     -1.273100    1.611200    0.613800
O     -1.199400    2.500500   -0.408400
C     -1.927300    3.704700   -0.171100
C     -0.464100    0.441000    0.250600
C      0.918700    0.560700    0.488300
C      1.787600   -0.499500    0.226500
N      3.172300   -0.378700    0.452100
C      4.105500   -1.441700    0.701600
C      5.076600   -0.360500    1.185800
C      3.825700    0.502100    1.380100
C      1.239900   -1.675800   -0.289400
C     -0.138200   -1.794600   -0.521400
C     -1.027800   -0.737200   -0.266900
N     -2.406800   -0.926200   -0.515600
C     -3.410200    0.055300   -0.819400
C     -4.304800   -1.108300   -1.253600
C     -3.003100   -1.898300   -1.391900
