21

O      6.223600   -0.576000    0.508400
C      5.242000    0.107400    0.249300
O      5.275100    1.406000   -0.144800
C      6.591100    1.952400   -0.243300
C      3.841300   -0.411100    0.335000
C      2.780600    0.375800    0.040200
C      1.456700   -0.142900    0.129900
N      0.288800    0.416300   -0.101100
C     -0.651800   -0.562800    0.148800
C     -2.083800   -0.338600    0.006400
C     -3.028600   -1.339300    0.262600
C     -4.396300   -1.081000    0.113100
C     -4.847300    0.175900   -0.293500
C     -3.915400    1.178800   -0.551000
C     -2.546200    0.920800   -0.401500
O     -6.205600    0.290700   -0.398700
C     -6.712000    1.554300   -0.810100
C     -0.033400   -1.733700    0.537700
N      1.311400   -1.465500    0.525500
C      2.384000   -2.294800    0.833900
C      3.632800   -1.805100    0.749200
