19

O      0.656700    1.275800   -1.627800
C      1.107200    0.678400   -0.656900
O      0.406300    0.433300    0.526000
C     -0.920600    0.880300    0.492100
C     -1.165700    2.195700    0.900200
C     -2.468100    2.689000    0.881000
C     -3.515800    1.869600    0.463100
C     -3.265700    0.549200    0.075300
C     -1.963800    0.026300    0.100600
C     -1.760300   -1.363100   -0.284500
C     -0.903800   -2.237700    0.362700
S     -1.021700   -3.752800   -0.433100
N     -2.169000   -3.201500   -1.515900
N     -2.482500   -1.930200   -1.329700
C      2.440300    0.111500   -0.538500
C      3.035800   -0.536800    0.530900
C      4.369400   -0.953700    0.246000
C      4.753000   -0.611400   -1.030100
S      3.513400    0.207500   -1.874100
