20

O     -3.220100    0.784200   -0.935700
C     -2.370500    0.848400   -0.066000
O     -2.542100    1.214200    1.229400
C     -3.876300    1.595500    1.593800
C     -4.678600    0.379200    2.014900
C     -0.936000    0.585700   -0.267500
C     -0.105500    1.721700   -0.292900
C      1.263000    1.591200   -0.522200
C      1.808800    0.323900   -0.738400
C      3.259700    0.112700   -0.996500
O      3.915800    1.299200   -1.031200
C      5.322100    1.185200   -1.281300
C      5.914400    2.580900   -1.291700
O      3.764800   -0.987600   -1.151400
C      0.970200   -0.803900   -0.713200
C     -0.414900   -0.706600   -0.465500
N     -1.185500   -1.893500   -0.452000
C     -2.424600   -2.156600    0.224000
C     -2.165900   -3.641600   -0.038100
C     -0.705900   -3.231900   -0.226500
