15

O      1.664500    0.166400   -1.848200
C      1.216300    0.701300   -0.850100
O      1.868300    0.942800    0.316000
C      3.246600    0.546600    0.348400
C      3.371200   -0.903000    0.776700
C     -0.143300    1.251100   -0.723800
C     -0.237500    2.656200   -0.738400
C     -1.479900    3.279100   -0.673300
C     -2.629300    2.502000   -0.604800
C     -2.533100    1.105600   -0.591800
C     -1.290800    0.440600   -0.636200
N     -1.277200   -0.974600   -0.609500
C     -0.235400   -1.854300   -0.159200
C     -1.285200   -2.967200   -0.143600
C     -2.310600   -1.835200   -0.098000
