18

O      0.480600   -1.047200   -1.941500
C      0.928500   -0.809200   -0.828200
O      0.359500   -1.162900    0.350700
C     -0.878400   -1.874500    0.265100
C     -2.034300   -0.910900    0.378400
C     -2.659900   -0.461200   -0.800000
C     -3.717200    0.446800   -0.743100
C     -4.149700    0.915400    0.489800
F     -5.164400    1.788000    0.543700
C     -3.544800    0.497600    1.667300
C     -2.485700   -0.411000    1.612300
Cl    -1.766900   -0.887300    3.109200
C      2.204100   -0.065700   -0.594300
C      2.910800    0.410000   -1.695200
C      4.097900    1.102500   -1.472900
C      4.538900    1.296700   -0.168200
C      3.773200    0.788300    0.868900
N      2.619300    0.112000    0.688500
