16

O      3.288600   -0.830700    2.415500
C      2.453200   -0.518700    1.575600
C      2.797500   -0.213800    0.167600
C      4.212600   -0.169700   -0.250800
O      4.382000   -0.372700   -1.574300
O      5.182500    0.031000    0.455500
C      1.839300    0.056100   -0.736500
C      0.437500    0.061300   -0.354500
C     -0.585200    0.321300   -1.267100
C     -1.922500    0.325100   -0.845600
C     -2.244200    0.070500    0.490800
O     -3.502800    0.046300    1.023800
C     -4.585300    0.303300    0.138100
C     -1.219800   -0.188700    1.402500
C      0.103200   -0.190000    0.968500
O      1.102300   -0.461500    1.918700
