20

O     -5.094300    0.270200    0.029000
C     -3.929200    0.515600   -0.270300
C     -2.774500   -0.208800    0.354800
Cl    -3.292700   -1.397600    1.516500
C     -1.477200    0.031900    0.052700
C     -0.222500   -0.661100    0.642200
C     -0.160500   -0.416500    2.171800
C     -0.264400   -2.177500    0.323100
C      1.108400   -0.134400    0.065700
C      1.116800    0.876300   -0.897500
C      2.331000    1.348800   -1.415900
C      3.548700    0.828100   -0.988400
C      3.551700   -0.173000   -0.034900
O      4.757100   -0.665200    0.366200
C      2.355000   -0.654800    0.491300
N     -0.040900    1.462200   -1.390600
C     -1.202200    1.088600   -0.969400
C     -2.334200    1.804500   -1.587700
C     -3.597600    1.545900   -1.270400
Cl    -4.886500    2.408800   -2.020000
