13

O     -1.876400    3.614200   -0.572800
C     -1.406400    2.501700   -0.362800
C     -2.273300    1.386900    0.049400
C     -1.820800    0.148500    0.294600
C     -2.746600   -0.955400    0.711800
C     -0.382400   -0.108900    0.145500
C      0.208300   -1.359300    0.351800
C      1.590800   -1.532900    0.190500
C      2.419600   -0.457800   -0.139000
N      3.774000   -0.670100   -0.414400
C      1.830300    0.776400   -0.404100
C      0.452200    0.940400   -0.240200
O     -0.056800    2.229000   -0.495800
