25

O      6.631400   -1.444900   -1.304200
C      6.095700   -0.669000   -0.523800
C      6.915500    0.177500    0.364700
C      6.362100    1.036000    1.224100
C      4.898300    1.190200    1.336100
O      4.422800    1.993600    2.127400
C      4.049300    0.352000    0.466200
C      2.653400    0.462200    0.548100
C      1.817300   -0.319200   -0.268200
C      0.351600   -0.203800   -0.183600
C     -0.457000   -1.335200   -0.016400
C     -1.858600   -1.234800    0.066100
C     -2.494400    0.017700   -0.043700
C     -1.684400    1.161500   -0.188300
C     -0.284300    1.041200   -0.268200
C     -2.295900    2.534200   -0.319200
C     -3.738000    2.563500    0.163500
C     -4.487500    1.376800   -0.418600
N     -3.889100    0.129300    0.052500
C     -4.666900   -1.090500   -0.154800
C     -4.086000   -2.222500    0.676000
C     -2.662000   -2.502200    0.220500
C      2.422100   -1.213600   -1.168800
C      3.813400   -1.327700   -1.252300
C      4.627800   -0.542700   -0.431600
