29

Si     5.716400    0.550400   -0.492500
C      6.652600   -1.050900   -0.356500
C      5.821700   -2.090500   -0.177200
C      4.400900   -1.714000   -0.133200
N      3.496300   -2.677300    0.041500
C      2.202300   -2.269500    0.074000
C      1.701700   -0.956000   -0.055700
C      0.249800   -0.677200    0.000600
C     -0.731200   -1.683300    0.186300
C     -2.112400   -1.424500    0.239700
C     -2.618500   -0.131800    0.112700
C     -1.688300    0.895900   -0.072300
C     -0.286400    0.638800   -0.127500
C      0.716100    1.625600   -0.309100
C      0.430200    2.966500   -0.453300
S      1.839700    3.909800   -0.656600
C      2.844400    2.524700   -0.551100
C      2.138700    1.356400   -0.365100
C      2.722600    0.049900   -0.242700
C      4.089300   -0.353400   -0.279600
C     -4.055100    0.143300    0.151500
C     -4.733400    0.926700   -0.797000
N     -6.069000    1.248500   -0.841800
C     -6.924500    0.789900    0.115300
C     -6.398200   -0.015600    1.143000
N     -7.084400   -0.552100    2.165000
S     -5.983200   -1.390800    3.078900
N     -4.594500   -1.117900    2.216500
C     -4.925800   -0.348100    1.162400
