24

O      5.655100    2.423800    0.247500
C      5.266000    1.309100   -0.074300
C      6.232400    0.273800   -0.490100
C      5.840000   -0.951400   -0.846900
C      4.416800   -1.342300   -0.846600
O      4.086000   -2.472900   -1.178700
C      3.423900   -0.329900   -0.435900
C      2.061100   -0.665900   -0.423400
C      1.093500    0.274100   -0.038000
C     -0.324400   -0.081500   -0.026900
C     -1.036600   -1.228400   -0.330600
C     -2.408600   -0.935200   -0.116300
C     -3.620700   -1.627500   -0.230800
C     -4.797200   -0.957200    0.086800
O     -6.054400   -1.474600    0.032100
C     -6.903200   -0.487100    0.422200
C     -6.207200    0.660800    0.727700
C     -4.835700    0.366600    0.513100
C     -3.622700    1.057800    0.627200
C     -2.446900    0.386400    0.309300
O     -1.191300    0.903000    0.363900
C      1.525800    1.557800    0.334100
C      2.883600    1.895900    0.322600
C      3.834600    0.948200   -0.063700
