21

O     -5.266300    1.239400   -1.616800
C     -4.755300    0.512900   -0.774700
C     -5.600500   -0.290600    0.129600
C     -5.071400   -1.091500    1.057400
C     -3.611300   -1.220600    1.233200
O     -3.158000   -1.963800    2.093300
C     -2.738100   -0.429100    0.343300
C     -1.344100   -0.523100    0.477700
C     -0.482800    0.214800   -0.351200
C      0.977100    0.100800   -0.192500
C      1.733200   -0.657900    0.691200
C      3.113300   -0.421500    0.447000
C      4.307900   -0.899900    1.018000
C      5.533800   -0.444200    0.519400
C      5.577600    0.472100   -0.529600
C      4.402800    0.959500   -1.110600
C      3.187100    0.491700   -0.598000
N      1.894500    0.788700   -0.963000
C     -1.061600    1.050900   -1.320100
C     -2.452000    1.147300   -1.457300
C     -3.291100    0.405300   -0.623300
