21

O      5.097700   -2.044600   -1.281100
C      4.690700   -1.013600   -0.762200
C      5.642100    0.016700   -0.303300
C      5.227100    1.150500    0.266000
C      3.793900    1.440200    0.469600
O      3.447300    2.489600    0.994800
C      2.815400    0.428500    0.020900
C      1.441300    0.666500    0.196900
C      0.476100   -0.270900   -0.216200
C     -0.982800   -0.049300   -0.044500
C     -2.038800   -0.874000   -0.399000
C     -3.336400   -0.344700   -0.084700
C     -4.628000   -0.886600   -0.291400
C     -5.764700   -0.175100    0.104300
C     -5.637200    1.070100    0.703800
C     -4.375000    1.627800    0.919500
C     -3.233800    0.906000    0.518600
S     -1.594700    1.384500    0.679200
C      0.946000   -1.456200   -0.812900
C      2.314100   -1.698100   -0.990500
C      3.250500   -0.752300   -0.572000
