24

O     -5.918100    0.717000   -0.991300
C     -5.265100    0.109600   -0.153300
C     -5.942900   -0.663300    0.905500
C     -5.256200   -1.335300    1.832500
C     -3.780200   -1.344600    1.852600
O     -3.178900   -1.970300    2.715500
C     -3.072100   -0.580600    0.806100
C     -1.668300   -0.564100    0.790400
C     -0.961400    0.151700   -0.189800
C      0.511600    0.155700   -0.188000
C      1.417200   -0.466500    0.671800
C      2.727400   -0.154400    0.249400
N      3.943900   -0.508500    0.742100
C      5.005700   -0.005200    0.055600
C      6.396500   -0.138000    0.245000
C      6.986000    0.596700   -0.761900
O      6.046200    1.175200   -1.561800
C      4.833500    0.808600   -1.063900
N      3.638000    1.173900   -1.572000
C      2.611100    0.658000   -0.868000
N      1.282200    0.835800   -1.119000
C     -1.704000    0.851400   -1.155100
C     -3.104500    0.837100   -1.142400
C     -3.789200    0.119200   -0.159300
