25

O      4.607900    1.917500    1.393000
C      4.220200    1.259100    0.437200
C      5.051100    1.146900   -0.777300
C      4.651400    0.443900   -1.839500
C      3.355700   -0.262500   -1.861900
O      3.015200   -0.896100   -2.851800
C      2.502300   -0.174300   -0.660500
C      1.265000   -0.833400   -0.641400
C      0.436200   -0.764200    0.489000
C     -0.850000   -1.457100    0.513200
C     -0.926600   -2.844500    0.759900
C     -2.151100   -3.514000    0.795500
C     -3.347800   -2.828000    0.586400
C     -3.252500   -1.459700    0.338900
O     -4.314400   -0.643900    0.112800
C     -3.825400    0.607000   -0.094800
N     -4.619900    1.662700   -0.352200
C     -3.936200    2.811600   -0.534300
C     -2.556400    2.950300   -0.474100
C     -1.773400    1.827800   -0.202700
C     -2.433600    0.601900   -0.001200
C     -2.056300   -0.747600    0.290300
C      0.874600   -0.028600    1.601700
C      2.106500    0.631300    1.584000
C      2.921100    0.558000    0.449300
