24

O     -5.670800    1.810500   -0.380400
C     -5.130000    0.717900   -0.272000
C     -5.939500   -0.513100   -0.198300
C     -5.374600   -1.716800   -0.080000
C     -3.909400   -1.887900   -0.016000
O     -3.427200   -3.006700    0.092500
C     -3.070900   -0.674100   -0.087300
C     -1.674200   -0.786900   -0.030400
C     -0.852400    0.352100   -0.096200
C      0.606300    0.184000   -0.032600
N      1.236900   -0.976900    0.084400
C      2.570400   -0.679900    0.105400
N      3.611000   -1.540900    0.211800
C      4.830300   -0.949100    0.204600
N      6.055100   -1.553000    0.296100
C      6.922400   -0.562300    0.244000
N      6.309500    0.657800    0.122700
C      4.966800    0.432600    0.095500
N      3.959400    1.324300   -0.012200
C      2.768600    0.690100   -0.000600
N      1.519100    1.220300   -0.086800
C     -1.464300    1.609000   -0.220400
C     -2.858400    1.723900   -0.277400
C     -3.661500    0.580800   -0.210700
