23

O      4.965700   -1.894100   -0.629800
C      5.198500   -0.764500   -0.240500
C      6.543500   -0.167600   -0.214700
C      6.460800    0.993500    0.442200
C      5.060400    1.174800    0.856800
N      4.377200    0.160900    0.291800
O      3.073700   -0.143000    0.664900
C      2.170400    0.306100   -0.243600
C      0.775500   -0.014900    0.149300
C     -0.184100    0.399900   -0.697500
C     -1.586900    0.144400   -0.420400
C     -2.606500    0.560400   -1.276900
C     -3.945800    0.288500   -0.962900
C     -4.272300   -0.400500    0.208800
O     -5.533200   -0.725200    0.625300
C     -6.612800   -0.325800   -0.209800
C     -3.250800   -0.815800    1.064200
C     -1.925900   -0.538200    0.738500
O     -0.928400   -0.974000    1.626900
C      0.426900   -0.745300    1.390300
O      1.263500   -1.143500    2.191700
O      2.461200    0.908500   -1.272700
O      4.684100    2.057400    1.606000
