23

O     -0.117000    1.719900   -1.423700
C      0.476200    1.214600   -0.476200
C      1.851800    0.849300   -0.512400
N      2.752500    0.994000   -1.530000
C      3.983500    0.501500   -1.135800
C      5.195900    0.438300   -1.834700
C      6.291200   -0.123200   -1.171500
C      6.167800   -0.596700    0.130100
F      7.239600   -1.128700    0.733900
C      4.960400   -0.533100    0.823200
C      3.844200    0.028200    0.177600
C      2.499800    0.260900    0.533700
N      1.869300   -0.042300    1.740900
C      0.618300    0.303300    1.764900
N     -0.108400    0.920600    0.753500
C     -1.520900    1.212800    0.944300
C     -2.402500    0.064300    0.454100
C     -3.881000    0.416000    0.586700
N     -4.738700   -0.666700    0.151800
C     -5.164000   -0.897000   -1.125600
C     -5.955300   -2.018700   -1.036200
N     -6.021600   -2.464900    0.258700
C     -5.282100   -1.629300    0.952100
