32

Si    -1.650900    0.586700    0.980500
C     -2.644800   -0.720900    0.087300
C     -1.856700   -1.519300   -0.656900
C     -0.434200   -1.156200   -0.605300
N      0.435200   -1.855000   -1.337400
C      1.737600   -1.477100   -1.234500
C      2.287300   -0.463000   -0.425400
C      1.287100    0.302800    0.276200
C     -0.079700   -0.071500    0.204100
C      1.887500    1.401700    0.951100
C      1.278400    2.379100    1.702000
O      2.199400    3.276600    2.155800
C      3.413600    2.877400    1.690700
C      3.277800    1.732100    0.944200
C      4.308800    1.014800    0.311100
C      5.695900    1.439000    0.350900
C      6.742200    0.717100   -0.230600
C      6.286300   -0.471600   -0.782800
C      7.179000   -1.361600   -1.329900
S      6.395300   -2.793200   -1.835100
C      4.863700   -2.214300   -1.307300
C      4.902000   -0.919300   -0.835700
C      3.764400   -0.170700   -0.344600
C     -4.071700   -0.875300    0.264800
C     -4.685000   -1.985100    0.899300
C     -6.106100   -2.128200    1.081300
C     -7.063300   -1.184900    0.642600
C     -6.441600   -0.116500    0.010000
C     -7.075900    0.959200   -0.554400
N     -6.094400    1.763000   -1.093800
C     -4.848000    1.210200   -0.876400
C     -5.033300    0.042100   -0.176000
