21

O      0.092200   -1.351800   -0.757000
C     -0.022800   -0.344700   -0.068500
C     -1.358000    0.156800    0.306900
C     -2.513300   -0.510100   -0.124000
C     -3.772600   -0.026100    0.237300
O     -4.965300   -0.593600   -0.124800
C     -4.917300   -1.763500   -0.930200
C     -3.851600    1.129500    1.032400
O     -5.084400    1.607900    1.389700
C     -2.702200    1.794200    1.461800
C     -1.452500    1.301000    1.094000
O     -0.353400    1.987900    1.540700
C      0.885000    1.511500    1.184500
C      1.147200    0.434300    0.427300
C      2.538800    0.039100    0.141900
C      3.460800    0.964200   -0.376500
C      4.782500    0.588700   -0.636700
C      5.185000   -0.717000   -0.380300
O      6.462800   -1.127000   -0.618000
C      4.289100   -1.649500    0.125900
C      2.968600   -1.273500    0.383900
