12

O     -2.415400    1.892500   -0.518800
C     -1.936600    0.801600   -0.240600
C     -0.484300    0.570400   -0.150800
C      0.420400    1.609900   -0.384600
C      1.790200    1.360300   -0.292100
C      2.240400    0.082300    0.031200
O      3.588000   -0.110500    0.109200
C      1.344800   -0.958100    0.265400
C     -0.025000   -0.708200    0.172900
O     -0.871900   -1.764600    0.412200
C     -2.223300   -1.529400    0.323600
C     -2.799300   -0.362200    0.024600
