26

Si    -5.781200   -0.598800    0.499000
C     -5.881100   -2.494300    0.110400
C     -4.667100   -3.015100   -0.174300
C     -3.648200   -2.025000   -0.109800
O     -2.294500   -2.120700   -0.323900
C     -1.768400   -0.863100   -0.132300
C     -0.445800   -0.464700   -0.237100
Si     1.033900   -1.464200   -0.661600
C      2.070900    0.131800   -0.475400
C      1.327500    1.206800   -0.134000
C     -0.096500    0.887400   -0.000400
C     -1.119400    1.799700    0.342600
N     -1.007700    3.116100    0.611900
S     -2.554600    3.672300    0.950100
N     -3.448600    2.260100    0.776200
C     -2.515900    1.378600    0.452700
C     -2.798700    0.001500    0.199300
C     -3.964200   -0.713800    0.214200
C      3.478000    0.162400   -0.629700
S      4.266100   -0.524200   -2.020300
C      5.842400   -0.078600   -1.496000
C      5.776800    0.577300   -0.302800
S      7.074400    1.277600    0.730600
C      5.759800    1.735100    1.804600
C      4.470600    1.377600    1.392700
C      4.462100    0.696400    0.144400
