21

O     -0.834200   -1.949100    0.336000
C     -1.258000   -0.832000    0.063400
C     -2.698800   -0.609800   -0.155600
C     -3.609000   -1.668200   -0.044300
C     -4.970100   -1.437900   -0.255000
C     -5.404200   -0.153400   -0.574400
O     -6.723400    0.115600   -0.788100
C     -4.503800    0.902000   -0.686400
C     -3.145500    0.670000   -0.475400
O     -2.299000    1.741200   -0.598300
C     -0.958900    1.523500   -0.387300
C     -0.371800    0.360400   -0.062600
C      1.089600    0.281600    0.121100
C      1.838100   -0.692200   -0.552800
C      3.228100   -0.771700   -0.396000
C      3.896900    0.121300    0.442300
O      5.248300    0.132600    0.663600
C      6.023300   -0.871800    0.025400
C      3.147300    1.089600    1.123100
O      3.792100    1.968200    1.954600
C      1.760500    1.173200    0.970400
