19

O      0.752200   -1.401200    1.671800
C      0.969000   -0.650200    0.727900
C      2.346500   -0.238600    0.399600
C      3.427600   -0.689400    1.164900
C      4.722100   -0.286500    0.834400
C      4.925500    0.559100   -0.252500
O      6.207700    0.925100   -0.536400
C      3.855300    1.012100   -1.019100
C      2.561100    0.607900   -0.686500
O      1.539900    1.078800   -1.471400
C      0.260600    0.691700   -1.153700
C     -0.114100   -0.105300   -0.139900
C     -1.536400   -0.440300    0.062800
C     -1.937500   -1.773600    0.214400
C     -3.282700   -2.095400    0.403600
C     -4.245100   -1.087700    0.442100
C     -3.872000    0.251000    0.286700
C     -4.899300    1.340800    0.374700
C     -2.516000    0.566200    0.112100
