20

O     -0.846000   -1.223100   -1.691900
C     -1.068600   -0.599600   -0.660800
C     -2.417500   -0.076900   -0.375200
C     -3.466000   -0.275700   -1.279700
C     -4.733900    0.228500   -0.987000
C     -4.943200    0.923500    0.201000
O     -6.198700    1.396400    0.442800
C     -3.905000    1.125600    1.106300
C     -2.637300    0.620700    0.811300
O     -1.647200    0.844000    1.733800
C     -0.394100    0.353800    1.456100
C     -0.017900   -0.324900    0.360300
C      1.370900   -0.800000    0.213100
C      1.628800   -2.146600   -0.074900
C      2.939700   -2.605500   -0.200300
C      4.003900   -1.719500   -0.042100
C      3.770600   -0.371000    0.232900
O      4.901500    0.388900    0.356200
C      4.723300    1.785100    0.557000
C      2.455500    0.084900    0.359700
