19

O      0.329500    1.033800   -1.632500
C      0.579900    0.467900   -0.575200
C      1.952400    0.033500   -0.256000
C      2.998800    0.258700   -1.158500
C      4.292200   -0.159700   -0.839200
C      4.523300   -0.797600    0.377700
O      5.770400   -1.222000    0.728700
C      3.486800   -1.024000    1.278700
C      2.196100   -0.605700    0.958600
O      1.210100   -0.852200    1.880100
C     -0.065700   -0.446000    1.571500
C     -0.455900    0.178600    0.450600
C     -1.867600    0.546400    0.263500
C     -2.365600    1.660600    0.960200
C     -3.699700    2.045600    0.828700
C     -4.550700    1.322900   -0.001000
C     -4.069800    0.214500   -0.698600
C     -2.731200   -0.192400   -0.571000
C     -2.252200   -1.382500   -1.357600
