19

O     -0.023200    1.770100    0.949300
C      0.317100    0.740300    0.379900
C      1.740100    0.391000    0.217200
C      2.742400    1.249800    0.679600
C      4.082100    0.895100    0.516300
C      4.407500   -0.308200   -0.104100
O      5.729900   -0.610300   -0.240800
C      3.415500   -1.169000   -0.566200
C      2.075900   -0.813000   -0.402200
O      1.134500   -1.695400   -0.870700
C     -0.188100   -1.347200   -0.736300
C     -0.665200   -0.226800   -0.174300
C     -2.113200    0.017500   -0.095300
C     -2.751900   -0.149600    1.144400
C     -4.127000    0.059700    1.272200
C     -4.881000    0.439700    0.164600
C     -4.260300    0.615200   -1.072100
C     -2.883300    0.407500   -1.203800
Cl    -2.181100    0.654700   -2.766000
