14

O      1.338600   -1.584500    0.867700
C      0.768000   -0.584300    0.450700
C     -0.698400   -0.538500    0.309800
C     -1.481900   -1.651200    0.632100
C     -2.868300   -1.580700    0.489900
C     -3.456700   -0.405500    0.029900
O     -4.814400   -0.385300   -0.092100
C     -2.683200    0.706600   -0.292400
C     -1.296600    0.634400   -0.149900
O     -0.575600    1.755600   -0.477800
C      0.790600    1.694800   -0.349900
C      1.509400    0.642100    0.064000
C      3.003900    0.648700    0.196400
C      3.687600   -0.105500   -0.935500
