24

O      5.291600   -2.783200    1.080600
C      4.513000   -1.902100    0.738100
C      4.984800   -0.603000    0.228100
C      6.362600   -0.364000    0.130500
C      6.826900    0.860700   -0.350200
C      5.919300    1.846600   -0.733500
C      4.546400    1.609400   -0.636600
C      4.072900    0.380600   -0.154200
C      2.613400    0.137300   -0.054700
N      1.775900    1.062200   -0.414600
C      0.411200    0.758100   -0.291800
C     -0.046900   -0.465500    0.190200
C     -1.418600   -0.734200    0.299700
C     -2.396800    0.206200   -0.068300
N     -3.758800   -0.056900    0.038000
C     -4.776900    0.870800   -0.474000
C     -5.152300    1.905000    0.577800
C     -4.272400   -1.280900    0.668400
C     -4.389000   -2.410400   -0.345100
C     -1.903600    1.432700   -0.551900
C     -0.530800    1.707000   -0.662500
O      0.817900   -1.462900    0.577600
C      2.175500   -1.192600    0.467500
C      3.062200   -2.122200    0.828700
