24

O     -3.032800   -2.231700    2.010900
C     -2.774100   -1.357700    1.189600
C     -3.860800   -0.653400    0.463800
C     -5.198200   -0.990300    0.697300
C     -6.208300   -0.316700    0.012100
C     -5.881600    0.691600   -0.895300
C     -4.543700    1.026700   -1.126200
C     -3.519100    0.343700   -0.463800
N     -2.176100    0.711900   -0.646800
C     -1.112200    0.021700   -0.042300
C      0.214400    0.393400   -0.293100
C      1.289200   -0.254300    0.345600
C      2.680000    0.138400    0.065400
C      3.103900    1.468200    0.262400
C      4.419200    1.884800    0.009300
C      5.296000    0.906100   -0.453300
N      6.617400    0.916000   -0.801100
N      7.040500   -0.294200   -1.200400
N      6.006800   -1.123300   -1.119100
C      4.927600   -0.414400   -0.663200
C      3.608800   -0.812800   -0.403200
C      1.002400   -1.281000    1.261100
C     -0.316300   -1.644800    1.541500
C     -1.366400   -0.987600    0.897000
