28

O     -4.754500   -2.722300   -1.099500
C     -4.351100   -1.624700   -0.727900
C     -5.303200   -0.516100   -0.465200
C     -6.676600   -0.707600   -0.648900
C     -7.559000    0.340600   -0.391800
C     -7.070000    1.569600    0.052300
C     -5.696600    1.758000    0.235600
C     -4.797900    0.722800   -0.039400
N     -3.422700    0.885500    0.190500
C     -2.478700   -0.108800   -0.112500
C     -1.112000    0.116500    0.091600
C     -0.159600   -0.890600   -0.155200
C      1.275100   -0.637200    0.055200
C      2.015400   -1.426500    0.948300
C      3.382400   -1.205000    1.169600
C      4.035500   -0.166600    0.478900
C      3.290500    0.612100   -0.409400
C      1.923200    0.402700   -0.637800
N      4.150100    1.540000   -0.952000
C      5.406100    1.385700   -0.439400
N      6.462100    2.149400   -0.775700
C      7.594800    1.791100   -0.128500
C      7.710700    0.757200    0.792100
C      6.581700   -0.002000    1.103400
C      5.376400    0.327000    0.459400
C     -0.611400   -2.144500   -0.600100
C     -1.972700   -2.390900   -0.789400
C     -2.899500   -1.376800   -0.538200
