25

O     -3.907800    2.605500   -0.630400
C     -3.443300    1.497900   -0.380000
C     -4.334300    0.325600   -0.192300
C     -5.722200    0.472800   -0.284700
C     -6.546100   -0.638300   -0.111100
C     -5.983500   -1.889000    0.146500
C     -4.595700   -2.033200    0.237700
C     -3.758100   -0.923600    0.089100
N     -2.361200   -1.069100    0.122700
C     -1.483500    0.023400    0.028200
C     -0.098100   -0.163500    0.114900
C      0.798000    0.913600   -0.030000
C      2.247600    0.705300    0.073700
C      3.038900    1.432700    0.954800
N      4.378900    1.287800    1.098600
C      5.014400    0.387300    0.349000
N      6.333700    0.255400    0.499700
C      6.992100   -0.650600   -0.255500
C      6.383200   -1.464900   -1.188100
C      5.012800   -1.338100   -1.352100
C      4.308800   -0.403800   -0.578300
C      2.919700   -0.236000   -0.706600
C      0.269600    2.191200   -0.283200
C     -1.108200    2.388500   -0.399000
C     -1.976900    1.305200   -0.252000
