24

O      3.565200   -2.665600    0.439900
C      3.201600   -1.516600    0.210100
C      4.194800   -0.432600    0.003000
C      5.564400   -0.711200    0.057400
C      6.485100    0.318200   -0.132900
C      6.037100    1.618300   -0.369400
C      4.667200    1.894000   -0.422700
C      3.732500    0.867800   -0.255800
N      2.356000    1.143200   -0.255500
C      1.380500    0.140600   -0.137000
C      0.018800    0.458400   -0.189200
C     -0.967300   -0.530400   -0.019300
C     -2.377500   -0.154000   -0.094800
N     -2.904200    1.037600   -0.320900
C     -4.256300    0.808900   -0.282700
C     -5.343800    1.675700   -0.449000
C     -6.637400    1.139400   -0.353200
C     -6.839700   -0.223500   -0.098600
C     -5.762200   -1.102000    0.069900
C     -4.499700   -0.531200   -0.032400
O     -3.295300   -1.158500    0.089500
C     -0.563100   -1.852800    0.222400
C      0.792800   -2.181000    0.298800
C      1.756800   -1.184400    0.126600
