19

O      1.871000    2.497300    0.578900
C      1.966200    1.363200    0.149600
C      2.796300    0.325400    0.756800
C      3.579900    0.355700    1.893700
C      4.275500   -0.812800    2.221100
C      4.174000   -1.965400    1.413900
C      3.375400   -1.969000    0.265700
C      2.696700   -0.804000   -0.034200
C      1.804000   -0.486900   -1.146900
O      1.548600   -1.259100   -2.051500
N      1.380900    0.800000   -0.952300
C      0.489000    1.514800   -1.849800
C     -0.846400    1.907500   -1.194500
C     -1.795200    0.804400   -0.757500
C     -1.761400   -0.464500   -1.206200
C     -2.684200   -1.551200   -0.732500
C     -3.461300   -1.177400    0.528000
C     -3.984600    0.249700    0.438300
C     -2.838300    1.245900    0.249800
