14

O      0.669500    2.389400    0.609000
C      0.454200    1.217300    0.317000
C     -0.935200    0.720000    0.115900
C     -2.022300    1.588400    0.258300
C     -3.316900    1.107700    0.066800
C     -3.521500   -0.232500   -0.264600
C     -2.433700   -1.099600   -0.406600
C     -1.129600   -0.633200   -0.218000
N     -0.032200   -1.487600   -0.356400
C      1.236900   -1.045300   -0.175500
N      2.305300   -1.769700   -0.284600
C      3.441100   -0.852000    0.001500
C      2.841400    0.513600    0.291200
N      1.443100    0.272600    0.150700
