23

O     -1.878900    2.075300    1.462100
C     -1.413000    1.040200    1.000300
C      0.019400    0.620500    1.183700
C      0.619900    0.024100   -0.082300
C      2.124300   -0.157900    0.009300
C      2.728100   -0.861700    1.082000
C      4.116700   -1.019900    1.156800
C      4.880200   -0.472000    0.151300
C      4.310600    0.207200   -0.897600
C      2.945400    0.379600   -0.999600
O      5.235500    0.666000   -1.782600
C      6.453300    0.187500   -1.173900
O      6.235200   -0.527800    0.060000
S     -0.213700   -1.554800   -0.423100
C     -1.860000   -1.036800   -0.297600
N     -2.865300   -1.701500   -0.808700
C     -3.965000   -0.934000   -0.544900
C     -5.306700   -1.168400   -0.882400
C     -6.273200   -0.229100   -0.508200
C     -5.911500    0.922200    0.190000
C     -4.578700    1.172000    0.536700
C     -3.619200    0.221600    0.153400
N     -2.241300    0.130800    0.330700
