17

O     -0.296800    3.974200   -1.650200
C     -0.422600    2.851200   -1.176300
C      0.754700    2.018200   -0.849000
C      0.591800    0.785100   -0.334700
C      1.830400    0.044600   -0.028100
C      2.358600    0.061700    1.269000
C      3.527200   -0.643800    1.561300
C      4.172800   -1.369700    0.560900
C      3.652100   -1.392500   -0.732500
C      2.483700   -0.687900   -1.027700
C     -0.759000    0.262600   -0.100700
C     -1.828000    1.033300   -0.388000
N     -1.644300    2.291400   -0.912600
C     -3.251800    0.601600   -0.155500
C     -3.364100   -0.629800    0.743500
C     -2.338500   -1.684400    0.349000
C     -0.911900   -1.136400    0.452600
