25

O      3.730800   -0.785100   -3.000600
C      3.307500   -0.655000   -1.855900
C      4.204400   -0.579800   -0.697400
C      3.667300   -0.427200    0.519400
C      4.492300   -0.336800    1.768400
O      4.197200   -1.436400    2.618900
O      2.301800   -0.332700    0.735300
C      1.414100   -0.400300   -0.341900
C     -0.044200   -0.290200    0.104100
N     -0.899300   -1.107200   -0.753800
C     -2.197000   -1.362700   -0.304900
C     -3.080000   -1.998900   -1.175900
C     -4.368700   -2.312000   -0.748700
C     -4.744700   -1.996700    0.547600
C     -3.806100   -1.388600    1.360300
N     -2.550300   -1.079800    0.965700
C     -0.472200    1.168500    0.193700
C     -0.441200    1.828100    1.436600
C     -0.800400    3.174600    1.544100
C     -1.192900    3.886000    0.412200
C     -1.227600    3.249000   -0.825700
C     -0.869000    1.905900   -0.926600
F     -0.919400    1.330200   -2.136500
C      1.847600   -0.559300   -1.606800
O      1.018500   -0.619200   -2.712100
