28

Si    -5.780400    1.794000    1.168700
C     -6.890400    0.302400    0.713600
C     -6.170300   -0.745600    0.258800
C     -4.776300   -0.460300    0.239400
S     -3.512400   -1.459900   -0.246800
C     -2.302000   -0.246000    0.096300
C     -2.901200    0.931900    0.588200
C     -2.076100    2.014600    0.915700
N     -0.733200    1.955100    0.772800
C     -0.142100    0.851900    0.312300
C      1.276400    0.880200    0.197900
C      2.122000   -0.170200   -0.269300
C      3.568000   -0.103600   -0.383000
N      4.176000   -0.687100   -1.472500
C      5.533200   -0.644900   -1.652600
C      6.473500   -0.050400   -0.821100
C      5.908100    0.556700    0.314400
N      6.598000    1.193700    1.273900
S      5.484900    1.718700    2.386300
N      4.080800    1.164900    1.701800
C      4.419900    0.541000    0.557900
C      1.335300   -1.272000   -0.617600
C      1.752700   -2.487400   -1.097900
O      0.677000   -3.300000   -1.300600
C     -0.440200   -2.598600   -0.945200
C     -0.093900   -1.342600   -0.512700
C     -0.903700   -0.296800   -0.048400
C     -4.295400    0.758300    0.649500
