23

O      6.094100   -1.537500    0.544700
C      5.502100   -0.521600    0.198600
C      6.257400    0.696500   -0.186200
C      5.566200    1.779700   -0.556500
N      4.201000    1.845700   -0.606400
C      3.409700    0.741100   -0.259600
C      2.011600    0.806900   -0.310100
C      1.209800   -0.297600    0.036500
C     -0.259800   -0.195600   -0.027400
C     -1.078900    0.865200   -0.392800
C     -2.438800    0.464300   -0.289100
C     -3.672000    1.098400   -0.522900
C     -4.874200    0.406600   -0.320300
C     -6.257600    0.699100   -0.444900
C     -6.931300   -0.445700   -0.082700
O     -6.057500   -1.429600    0.258600
C     -4.808500   -0.910700    0.113900
C     -3.611900   -1.567700    0.354400
C     -2.431500   -0.857100    0.145200
N     -1.117800   -1.229800    0.294800
C      1.852600   -1.481300    0.438800
C      3.247700   -1.563600    0.494600
C      4.018500   -0.455400    0.146300
