20

O     -4.766600   -1.944900   -0.412200
C     -4.234600   -0.841600   -0.369200
C     -5.048900    0.391600   -0.502300
C     -4.427300    1.573100   -0.427400
N     -3.084200    1.731100   -0.215500
C     -2.232600    0.617300   -0.146600
C     -0.855200    0.774100    0.043400
C     -0.002000   -0.341000    0.153800
C      1.447200   -0.164700    0.345200
C      1.942000    0.576500    1.437200
C      3.314100    0.768000    1.657900
C      4.173600    0.182000    0.731200
N      5.533500    0.141100    0.605100
N      5.916700   -0.558800   -0.475000
N      4.816500   -0.993800   -1.077300
C      3.736300   -0.555600   -0.358800
C      2.361200   -0.737600   -0.562300
C     -0.566200   -1.627000    0.081000
C     -1.941600   -1.800400   -0.087900
C     -2.767800   -0.680500   -0.194000
