26

O      6.802700   -1.569700   -1.073700
C      6.157400   -0.585700   -0.731300
C      6.826500    0.725400   -0.545100
C      6.077200    1.775300   -0.192300
N      4.721500    1.734100   -0.007700
C      4.022100    0.520200   -0.095800
C      2.640500    0.467400    0.118700
C      1.928000   -0.740600   -0.009400
C      0.476700   -0.786000    0.226400
C     -0.066300   -1.635500    1.204900
C     -1.441900   -1.668400    1.442600
C     -2.292600   -0.854200    0.691800
C     -3.756700   -0.872500    0.937400
O     -4.234600   -1.589200    1.811000
C     -4.629600   -0.011500    0.100600
C     -6.015700   -0.018300    0.288700
C     -6.822400    0.799300   -0.501300
C     -6.244500    1.622800   -1.468100
C     -4.858500    1.628000   -1.653600
C     -4.039000    0.795900   -0.884700
N     -2.641900    0.836500   -1.024800
C     -1.784100   -0.016500   -0.310800
C     -0.400100    0.025000   -0.519200
C      2.633700   -1.901300   -0.372000
C      4.009100   -1.861000   -0.610100
C      4.694600   -0.652300   -0.478000
