26

O     -7.112000   -1.734500   -0.051600
C     -6.603200   -0.680800    0.313500
C     -7.434000    0.378800    0.937000
C     -6.837900    1.518000    1.304700
N     -5.507800    1.788000    1.130200
C     -4.640200    0.818500    0.603800
C     -3.275300    1.082000    0.445800
C     -2.407100    0.125800   -0.115700
C     -0.971800    0.409900   -0.268200
C     -0.526100    1.528000   -0.974600
C      0.841500    1.788800   -1.106500
C      1.819900    0.949000   -0.540400
C      1.384400   -0.186000    0.153900
C     -0.001100   -0.433700    0.291000
C      2.339500   -1.145700    0.814100
C      3.418600   -1.640600   -0.139400
C      4.576400   -0.683400   -0.244900
C      5.878400   -1.202500   -0.081200
C      7.001400   -0.384800   -0.179400
C      6.840900    0.965400   -0.448500
C      5.557700    1.485600   -0.625500
C      4.405100    0.676400   -0.540700
N      3.164300    1.310600   -0.734400
C     -2.944800   -1.105800   -0.530400
C     -4.308100   -1.377500   -0.396400
C     -5.148900   -0.414600    0.163700
