25

O     -6.004800   -2.483600    1.805100
C     -5.670900   -1.974100    0.741500
C     -6.584700   -2.005400   -0.427400
C     -6.171400   -1.447700   -1.570400
N     -4.951800   -0.853200   -1.744600
C     -4.043000   -0.745200   -0.681900
C     -2.800900   -0.124800   -0.853700
C     -1.874900   -0.040100    0.204100
C     -0.572300    0.616300    0.012300
C     -0.490600    1.943000   -0.427700
C      0.749700    2.556900   -0.619700
C      1.939500    1.860100   -0.371600
C      1.884400    0.536100    0.089800
C      0.627700   -0.072600    0.259700
N      3.043000   -0.229700    0.312100
C      4.373100    0.221400    0.240500
C      5.409500   -0.675000    0.549100
C      6.747700   -0.288600    0.454100
C      7.069300    0.997600    0.034700
C      6.052200    1.893200   -0.295300
C      4.704400    1.512900   -0.203000
S      3.474300    2.723500   -0.659000
C     -2.222000   -0.600800    1.446100
C     -3.454300   -1.231100    1.631400
C     -4.355800   -1.303900    0.568300
