19

Si     4.505200    1.049200    1.991000
C      5.567600    2.101300    0.794600
C      4.925700    2.352500   -0.367200
C      3.624800    1.766700   -0.394900
S      2.500000    1.849700   -1.672400
C      1.379000    0.895400   -0.741200
C      0.097900    0.343100   -0.821700
Si    -1.388100    0.164200   -1.901700
C     -2.196300   -0.884600   -0.442600
C     -1.354700   -0.999700    0.615600
C     -0.140400   -0.320300    0.357200
N      0.935100   -0.212400    1.179000
C      1.879300    0.541700    0.500800
C      3.169500    1.046200    0.691200
C     -3.500800   -1.432100   -0.553600
C     -4.639000   -0.891600   -1.134300
C     -5.774200   -1.751200   -1.064500
C     -5.481800   -2.934200   -0.430200
S     -3.854800   -3.002300    0.077900
