25

O      6.628700    0.500200   -1.513400
C      5.959500    0.442300   -0.488000
C      6.598400    0.628100    0.838400
C      5.830200    0.543200    1.929700
N      4.487200    0.283400    1.912500
C      3.796000    0.138800    0.700600
C      2.419300   -0.110500    0.679600
C      1.727100   -0.287800   -0.534300
C      0.277600   -0.545100   -0.544000
C     -0.252700   -1.670600   -1.200800
C     -1.628600   -1.920300   -1.209800
C     -2.493200   -1.044100   -0.560900
C     -1.988100    0.076000    0.093600
C     -0.614700    0.326200    0.104000
O     -2.799300    0.970600    0.745900
C     -4.141400    0.686600    0.709200
C     -5.005600    1.568100    1.357000
C     -6.379900    1.322100    1.348000
C     -6.885500    0.197200    0.692500
C     -6.018000   -0.684000    0.044400
C     -4.646200   -0.436200    0.054600
O     -3.834100   -1.330500   -0.596400
C      2.454300   -0.216800   -1.736000
C      3.830700    0.020700   -1.731900
C      4.494700    0.192900   -0.516600
