24

O     -4.707700    0.680700    2.312900
C     -4.188100    0.896200    1.224000
C     -4.818700    1.832400    0.261100
C     -4.201600    2.054200   -0.904400
N     -3.010500    1.488600   -1.271000
C     -2.381300    0.542000   -0.448400
C     -1.177000   -0.056800   -0.829900
C     -0.522300   -0.968800    0.018100
C      0.735700   -1.588100   -0.391600
C      0.761500   -2.858500   -1.003900
C      1.960600   -3.450100   -1.406200
C      3.180000   -2.798900   -1.214600
C      3.134300   -1.546300   -0.605000
O      4.222600   -0.777100   -0.342500
C      3.778600    0.359100    0.257700
N      4.608100    1.342600    0.653700
C      3.965700    2.379000    1.232500
C      2.594400    2.476400    1.424900
C      1.774000    1.432900    0.995700
C      2.389900    0.325800    0.384200
C      1.965700   -0.916700   -0.184100
C     -1.094500   -1.272400    1.264000
C     -2.288200   -0.670400    1.665100
C     -2.921300    0.236900    0.812700
