17

O     -3.926300    2.056500    0.977800
C     -3.497000    0.987500    0.558800
C     -4.429800   -0.095000    0.157500
C     -3.911300   -1.242500   -0.293200
N     -2.571800   -1.490600   -0.411200
C     -1.622300   -0.523200   -0.054400
C     -0.250100   -0.775900   -0.174700
C      0.729300    0.183300    0.178400
C      2.174600   -0.129900    0.033600
C      3.213600    0.740700    0.351600
C      4.535000    0.334700    0.173100
C      4.771500   -0.930200   -0.318100
N      3.770800   -1.770400   -0.625000
N      2.470600   -1.363200   -0.446400
C      0.259900    1.421900    0.663300
C     -1.108000    1.692800    0.790600
C     -2.040600    0.721800    0.432100
