24

O      4.991700    0.053900   -2.589900
C      4.694400    0.338400   -1.435600
C      5.649500    1.072700   -0.569700
C      5.266800    1.384900    0.673000
N      4.040900    1.088400    1.204900
C      3.105000    0.337700    0.477700
C      1.860300    0.010300    1.025900
C      0.902800   -0.703000    0.280900
C     -0.393700   -1.036400    0.864100
C     -0.551300   -1.895900    1.951900
N     -1.729000   -2.231100    2.529200
C     -2.872500   -1.705700    2.028400
C     -2.837300   -0.825900    0.939000
C     -1.598500   -0.506900    0.378700
N     -1.840900    0.378100   -0.649600
C     -3.185600    0.624200   -0.781200
C     -3.874300    1.436800   -1.679100
C     -5.251400    1.449800   -1.518600
N     -5.928600    0.750500   -0.581800
C     -5.234800   -0.032800    0.280900
C     -3.838600   -0.117100    0.202600
C      1.216600   -1.081900   -1.035900
C      2.447900   -0.748300   -1.602800
C      3.381600   -0.035300   -0.848300
