23

O      5.772700    1.501100   -0.060400
C      5.159500    0.445800   -0.172400
C      5.888200   -0.831500   -0.371400
C      5.175000   -1.956700   -0.488300
N      3.809600   -2.015300   -0.436900
C      3.042200   -0.857300   -0.251800
C      1.646100   -0.916000   -0.199200
C      0.876900    0.247400   -0.013300
C     -0.580000    0.140200    0.035500
N     -1.334900   -0.940900   -0.073600
C     -2.613300   -0.462300    0.044400
C     -3.852900   -1.106200    0.013400
C     -4.986200   -0.319000    0.165700
O     -6.291500   -0.713200    0.170300
C     -6.975400    0.453300    0.352900
N     -6.235300    1.536500    0.463000
C     -4.956200    1.058400    0.345100
C     -3.716200    1.701400    0.375800
C     -2.583500    0.913400    0.223500
O     -1.280000    1.308300    0.219000
C      1.535400    1.481200    0.120100
C      2.929800    1.555600    0.069600
C      3.675300    0.389500   -0.115600
