23

O     -5.967100    0.218300   -1.588200
C     -5.296400    0.072900   -0.572700
C     -5.953700   -0.131200    0.742100
C     -5.178300   -0.285000    1.820900
N     -3.811000   -0.267400    1.798400
C     -3.109500   -0.080500    0.599600
C     -1.711000   -0.062300    0.574500
C     -0.995400    0.125300   -0.626700
C      0.483500    0.132300   -0.571600
N      1.170200   -0.028100    0.544600
C      2.529500    0.023000    0.297300
C      3.549000   -0.109100    1.248600
C      4.887100   -0.037300    0.861600
S      6.316700   -0.165100    1.812300
C      7.261100    0.056300    0.401400
N      6.602200    0.218200   -0.723300
C      5.241700    0.166500   -0.472500
C      4.220400    0.298400   -1.421900
C      2.883000    0.226200   -1.033000
S      1.456000    0.353100   -1.977000
C     -1.729900    0.295800   -1.814200
C     -3.128900    0.280100   -1.805700
C     -3.810700    0.092700   -0.603000
