22

O     -5.460200   -1.657300    0.054200
C     -4.394900   -1.038600   -0.027600
N     -4.364300    0.367900    0.064800
C     -5.641500    1.025900    0.260200
C     -3.213500    1.161600    0.032200
C     -2.024500    0.405200   -0.164500
N     -0.710800    0.778100   -0.293400
C     -0.238500    2.142400   -0.358000
C      0.033200   -0.387900   -0.396500
C      1.446700   -0.375300   -0.496400
C      2.218500    0.158800    0.464200
C      3.687500    0.159400    0.422800
C      4.423500   -0.940700   -0.036800
C      5.820600   -0.911200   -0.035800
C      6.495300    0.213400    0.434300
C      5.774600    1.306600    0.909800
C      4.377700    1.277300    0.909700
N     -0.765000   -1.442200   -0.438200
C     -2.020200   -0.950200   -0.272700
N     -3.175800   -1.690600   -0.210500
C     -3.119300   -3.137200   -0.316600
O     -3.213000    2.381600    0.168300
