17

O      2.753100   -1.679200    1.609400
C      3.152600   -0.828400    0.818400
N      2.395000    0.014500   -0.008900
C      0.954300    0.021300   -0.058900
C      0.153100   -0.804900    0.730300
C     -1.253500   -0.766800    0.648500
C     -1.939900    0.085500   -0.228200
N     -3.336700    0.128300   -0.292400
C     -3.971600    0.796800   -1.426900
C     -4.106100   -0.958600    0.310600
C     -1.126900    0.923600   -1.002300
C      0.277700    0.891200   -0.925900
N      2.981600    0.933600   -0.873000
C      4.269200    1.018600   -0.910800
Cl     4.914900    2.182200   -2.008300
C      5.185700    0.209700   -0.101100
C      4.625500   -0.672400    0.723500
