22

O      0.939800   -1.568700   -2.190100
C      0.172500   -1.007700   -1.431800
N     -1.205100   -0.963100   -1.522900
C     -1.630700   -0.216100   -0.535200
C     -3.053500    0.075900   -0.294800
C     -3.487900    1.218000    0.383100
C     -4.854600    1.441900    0.574600
C     -5.791600    0.535400    0.081600
C     -5.366400   -0.595400   -0.611400
C     -4.002300   -0.822800   -0.803400
C     -0.546600    0.255600    0.283700
C      0.546600   -0.255600   -0.258100
C      1.630700    0.216100    0.560700
C      3.053500   -0.075900    0.320300
C      4.002300    0.822900    0.828900
C      5.366400    0.595400    0.636900
C      5.791600   -0.535300   -0.056100
C      4.854700   -1.441900   -0.549100
C      3.487900   -1.218000   -0.357500
N      1.205100    0.963100    1.548400
C     -0.172500    1.007700    1.457400
O     -0.939800    1.568700    2.215600
