15

O      1.786700   -2.881600   -1.195200
C      1.336900   -1.781600   -0.923100
N      0.029200   -1.313800   -0.998500
N      0.016900    0.019300   -0.545100
C     -1.160900    0.219900    0.172900
C     -1.553800    1.549600    0.746100
N     -1.800100    2.541400   -0.295900
C     -1.887300   -0.914000    0.238900
C     -3.197300   -1.244100    0.843000
C     -1.078000   -1.958600   -0.458000
O     -1.428800   -3.121600   -0.560200
C      1.328400    0.386500   -0.259000
C      1.703900    1.748900    0.219400
C      2.184900   -0.621900   -0.514200
C      3.653900   -0.753900   -0.395400
