24

O      7.109600   -1.452900    0.894100
C      6.325600   -0.810600    0.225800
N      6.596800    0.037900   -0.803300
C      5.469800    0.592700   -1.327500
O      5.381400    1.384900   -2.243200
C      4.348500    0.048400   -0.563000
C      2.990500    0.275600   -0.679900
C      2.128100   -0.397400    0.206400
C      0.671200   -0.197100    0.131400
C      0.113200    1.086700    0.169100
C     -1.278100    1.287500    0.099800
C     -2.153900    0.192200   -0.037300
C     -1.598400   -1.102700   -0.054100
C     -0.204600   -1.283900    0.017700
C     -2.474300   -2.321000   -0.209500
C     -3.930500   -2.020100    0.110200
C     -4.343700   -0.735500   -0.588400
N     -3.542700    0.381800   -0.091700
C     -4.014200    1.724300   -0.426500
C     -3.290600    2.754600    0.424400
C     -1.801300    2.702300    0.120200
C      2.686900   -1.274600    1.177500
C      4.067900   -1.489200    1.276300
C      4.872200   -0.810000    0.387200
