23

O      5.961200   -2.282200    2.158800
C      5.264300   -1.947200    1.223100
N      5.582600   -1.928800   -0.099900
C      4.551500   -1.492900   -0.874500
O      4.524800   -1.365400   -2.081300
C      3.447300   -1.196800    0.037700
C      2.173200   -0.726900   -0.218800
C      1.307800   -0.531800    0.873400
C     -0.053400   -0.036700    0.670100
C     -1.115700    0.252000    1.508300
C     -2.182100    0.704600    0.687900
C     -3.496800    1.143900    0.888700
C     -4.246700    1.514500   -0.222600
O     -5.531500    1.961800   -0.209500
C     -5.875100    2.208300   -1.501400
C     -4.826100    1.924900   -2.346800
C     -3.760900    1.472600   -1.525600
C     -2.446000    1.033100   -1.724900
C     -1.697200    0.662800   -0.612900
O     -0.414200    0.216200   -0.625600
C      1.773200   -0.822700    2.183900
C      3.070900   -1.298700    2.418900
C      3.883900   -1.474900    1.320200
