20

O      6.047400    0.872100    0.038600
C      5.116700    0.193500    0.421700
N      5.152000   -0.911700    1.215400
C      3.911700   -1.422700    1.444800
O      3.609900   -2.394700    2.106400
C      2.972000   -0.562400    0.727200
C      1.593600   -0.632500    0.626400
C      0.923800    0.340500   -0.142300
C     -0.556300    0.289900   -0.268100
C     -1.446900   -0.617800    0.283200
C     -2.823400   -0.371100   -0.043800
C     -3.998100   -1.069200    0.326600
C     -5.249300   -0.634600   -0.120900
C     -5.351400    0.486200   -0.933100
C     -4.208500    1.193300   -1.313400
C     -2.950900    0.750400   -0.859200
S     -1.421500    1.451500   -1.192900
C      1.707800    1.347700   -0.776200
C      3.106100    1.398500   -0.659500
C      3.708600    0.424500    0.102500
