26

O     -7.388200   -0.631800   -0.594800
C     -6.438100    0.116500   -0.490400
N     -6.419900    1.473000   -0.600800
C     -5.171100    1.988600   -0.436300
O     -4.825300    3.151100   -0.489500
C     -4.286100    0.852700   -0.183700
C     -2.925100    0.814300    0.054100
C     -2.324800   -0.441700    0.264800
C     -0.877600   -0.547600    0.522400
C     -0.393400   -1.249000    1.640100
C      0.977800   -1.362100    1.879700
C      1.884500   -0.764700    1.002000
C      3.345300   -0.882900    1.238800
O      3.772500   -1.514900    2.199800
C      4.275900   -0.216600    0.293500
C      5.658100   -0.290200    0.495000
C      6.519800    0.335600   -0.404700
C      6.001000    1.024200   -1.501800
C      4.618800    1.095600   -1.700900
C      3.741700    0.492400   -0.794400
N      2.354900    0.512400   -1.015400
C      1.434300   -0.037400   -0.108400
C      0.056800    0.047500   -0.347800
C     -3.138900   -1.608100    0.223800
C     -4.517700   -1.543100   -0.018100
C     -5.060800   -0.292600   -0.217800
