25

O     -6.690000   -0.443200   -2.493400
C     -6.089300   -0.395200   -1.439700
N     -6.585300   -0.546100   -0.181200
C     -5.621900   -0.425600    0.772600
O     -5.746200   -0.502200    1.977800
C     -4.368400   -0.174300    0.063100
C     -3.088800    0.021200    0.547400
C     -2.055500    0.245700   -0.382400
C     -0.670400    0.459900    0.072200
C     -0.369400    1.430100    1.046000
C      0.944300    1.636600    1.479400
C      1.976300    0.872700    0.943500
C      1.699500   -0.093000   -0.019900
C      0.388600   -0.300000   -0.453900
O      2.681300   -0.873500   -0.577400
C      3.953900   -0.636900   -0.121600
C      4.985200   -1.405900   -0.658700
C      6.297300   -1.202400   -0.227100
C      6.574100   -0.232200    0.738700
C      5.539600    0.536600    1.275100
C      4.230300    0.331500    0.842600
O      3.247800    1.111300    1.399200
C     -2.371200    0.262600   -1.769900
C     -3.677000    0.061300   -2.236800
C     -4.654400   -0.155600   -1.290100
