31

Si     1.948000   -0.245600   -0.634200
C      2.890800    0.555500    0.775700
C      2.024400    1.017500    1.701700
C      0.607100    0.784500    1.383100
N     -0.320800    1.207900    2.242600
C     -1.614800    0.965700    1.897100
C     -2.090300    0.319000    0.735600
C     -1.036600   -0.113000   -0.150000
C      0.320600    0.126100    0.185000
C     -1.581500   -0.755000   -1.297300
C     -0.916900   -1.303600   -2.368300
O     -1.803300   -1.824700   -3.264200
C     -3.051800   -1.611000   -2.768000
C     -2.971100   -0.957700   -1.562400
C     -4.045200   -0.563300   -0.744800
C     -5.417600   -0.804500   -1.082400
C     -6.473800   -0.408700   -0.263900
C     -6.108600    0.248700    0.926700
N     -6.986700    0.700400    1.834900
S     -6.101500    1.392000    3.047300
N     -4.570100    1.150500    2.476600
C     -4.656500    0.510400    1.296000
C     -3.547300    0.100600    0.447000
C      4.310700    0.650600    0.838100
S      5.118700    1.425300    2.213900
C      6.710400    1.169100    1.609300
C      6.597100    0.532600    0.434500
O      7.632100    0.149500   -0.361300
C      6.927000   -0.435200   -1.392100
C      5.537300   -0.404500   -1.223200
C      5.318800    0.249500    0.011000
