17

O     -4.565900    1.166400    1.171300
C     -3.843400    0.412400    0.552200
N     -4.197700   -0.642800   -0.229800
C     -3.118000   -1.269100   -0.773800
O     -3.108300   -2.234100   -1.509600
C     -1.938800   -0.546200   -0.296100
C     -0.593400   -0.756400   -0.539500
C      0.357700    0.105500    0.058200
C      1.809700   -0.099800   -0.188100
C      2.829000    0.684000    0.345900
C      4.157500    0.391800    0.041000
C      4.420400   -0.675800   -0.788600
N      3.438000   -1.431200   -1.303200
N      2.130700   -1.137300   -0.998300
C     -0.138300    1.154600    0.888200
C     -1.509100    1.350500    1.122300
C     -2.383600    0.479900    0.513100
