16

O     -4.334500   -1.328400   -0.441700
C     -3.546700   -0.474300   -0.090800
N     -3.814300    0.759400    0.418000
C     -2.681900    1.456800    0.707400
O     -2.586400    2.573800    1.173000
C     -1.560600    0.589800    0.348300
C     -0.198500    0.806900    0.436200
C      0.656100   -0.223800    0.010100
C      2.100600   -0.065700    0.069300
C      3.132100   -0.674900   -0.684900
N      4.351000   -0.272600   -0.316800
N      4.108600    0.597000    0.675700
C      2.779300    0.754400    0.946900
C      0.100500   -1.431000   -0.490400
C     -1.285500   -1.625100   -0.569300
C     -2.089800   -0.591400   -0.140300
