24

O      6.099200    0.842300   -1.777000
C      5.464400    0.733600   -0.748200
N      5.883500    0.954100    0.527800
C      4.897500    0.737700    1.440700
O      4.953500    0.848900    2.648000
C      3.714800    0.332500    0.682400
C      2.445000   -0.003200    1.114800
C      1.486600   -0.356100    0.145100
C      0.117300   -0.720300    0.540400
C     -0.137100   -1.701400    1.497700
N     -1.351600   -2.108200    1.929600
C     -2.386200   -1.470100    1.345400
S     -3.987500   -1.854200    1.767400
C     -4.608400   -0.704400    0.679200
N     -5.941100   -0.528800    0.553700
C     -6.292400    0.414300   -0.341900
C     -5.412800    1.169000   -1.097200
C     -4.045300    0.956900   -0.938900
C     -3.613500   -0.019800   -0.013300
C     -2.302600   -0.473900    0.379100
C     -1.001300   -0.095700   -0.029100
C      1.864400   -0.352900   -1.227200
C      3.158600   -0.008800   -1.640200
C      4.061700    0.330400   -0.656300
