24

O     -5.634100   -2.017600   -0.812200
C     -5.048500   -0.956200   -0.752700
N     -5.477000    0.267700   -1.165300
C     -4.546900    1.239200   -0.956500
O     -4.622400    2.420900   -1.222700
C     -3.396600    0.582700   -0.336700
C     -2.186000    1.102000    0.081700
C     -1.250600    0.217100    0.648600
C      0.046200    0.707100    1.111300
C      0.193900    1.631000    2.147300
N      1.369200    2.110000    2.616900
C      2.521300    1.677100    2.052600
C      2.497600    0.754900    0.998800
C      1.260700    0.288600    0.546600
N      1.518700   -0.577500   -0.494100
C      2.869200   -0.700600   -0.711400
C      3.571600   -1.463600   -1.641700
C      4.951000   -1.339500   -1.578000
N      5.618100   -0.554600   -0.704000
C      4.911300    0.180100    0.190100
C      3.511500    0.124700    0.210200
C     -1.585100   -1.159600    0.773400
C     -2.819000   -1.661700    0.340600
C     -3.703800   -0.760500   -0.212100
