20

O      5.684700   -1.870300   -0.570700
C      4.926600   -0.991700   -0.214700
N      5.233600    0.214900    0.334300
C      4.124800    0.954100    0.612900
O      4.070000    2.063200    1.102600
C      2.976900    0.145400    0.203000
C      1.622300    0.412600    0.261200
C      0.723700   -0.566000   -0.213000
C     -0.726500   -0.273500   -0.147900
N     -1.214500    0.854200    0.330700
C     -2.597100    0.856400    0.270100
C     -3.442400    1.900900    0.695800
C     -4.829300    1.766200    0.574300
C     -5.379800    0.607500    0.035700
C     -4.561700   -0.442400   -0.393700
C     -3.170400   -0.295100   -0.266400
S     -1.917800   -1.389700   -0.696200
C      1.251800   -1.782200   -0.729100
C      2.632200   -2.030500   -0.777800
C      3.468000   -1.043600   -0.302700
