24

Si    -0.535400   -1.127800    1.692000
C      1.144200   -0.630500    1.049600
C      2.497900   -0.767900    1.329700
C      3.166200   -0.067200    0.328700
N      2.214400    0.472700   -0.525600
C      0.971800    0.127400   -0.083900
C     -0.368500    0.404200   -0.569800
C     -0.730800    1.135200   -1.673800
N     -2.020300    1.330500   -2.035800
C     -3.007900    0.793600   -1.295500
C     -4.316600    1.060800   -1.765000
C     -5.522900    0.620700   -1.180700
C     -5.284500   -0.137100   -0.044300
C     -6.316800   -0.670000    0.687300
S     -5.728500   -1.554300    2.030700
C     -4.090300   -1.216100    1.621600
C     -3.976600   -0.446100    0.487300
C     -2.749100    0.006800   -0.114800
C     -1.386600   -0.177600    0.235200
C      4.570400    0.125700    0.122100
C      5.246300    0.816600   -0.867200
C      6.635600    0.698900   -0.612300
C      6.778000   -0.060200    0.525300
N      5.524300   -0.401600    0.961400
