23

O     -6.239100   -0.511700    1.427100
C     -5.439700    0.038400    0.697800
N     -5.680600    0.936900   -0.294800
C     -4.537600    1.348200   -0.910000
O     -4.426500    2.138200   -1.824200
C     -3.438000    0.644400   -0.249300
C     -2.075600    0.688000   -0.473800
C     -1.242500   -0.112900    0.331700
C      0.208800   -0.072000    0.098900
N      0.811000    0.668600   -0.822000
C      2.146700    0.409200   -0.697900
N      3.164200    0.931800   -1.423700
C      4.392900    0.482400   -1.069400
N      5.599800    0.826000   -1.615600
C      6.486800    0.128500   -0.934900
N      5.903600   -0.652200    0.029300
C      4.560200   -0.440300   -0.039700
N      3.576200   -0.984700    0.706600
C      2.375000   -0.508600    0.318300
N      1.141500   -0.801900    0.810800
C     -1.827400   -0.928800    1.336200
C     -3.214300   -0.955500    1.544500
C     -3.991100   -0.155800    0.733200
