12

O      2.911200   -1.747200    0.856100
C      2.302100   -0.744400    0.544300
N      2.789600    0.514000    0.366500
C      1.818300    1.400700    0.015400
C      0.569000    0.643600   -0.038100
C     -0.712400    1.051400   -0.354400
C     -1.731600    0.093200   -0.299800
N     -3.020700    0.421400   -0.733300
C     -1.409600   -1.256000   -0.020300
C     -0.103100   -1.649500    0.296000
C      0.865300   -0.669100    0.283600
O      1.934400    2.587900   -0.210300
