18

O     -1.815200    1.891000    2.637000
C     -1.519800    1.275000    1.633100
O     -0.283900    1.191200    1.061800
C     -0.307200    0.440700   -0.164400
N      0.600400   -0.683000   -0.106600
C      1.951200   -0.348700   -0.117200
C      2.541500    0.363700   -1.157500
C      3.908500    0.639200   -1.108700
C      4.647500    0.184200   -0.027100
Br     6.496000    0.526200    0.090800
C      3.990800   -0.534500    0.955900
N      2.664500   -0.814600    0.924900
C     -1.709200   -0.036100   -0.247600
C     -2.334900   -0.845500   -1.182900
C     -3.697400   -1.117200   -1.018900
C     -4.411700   -0.580100    0.066100
C     -3.769800    0.232800    1.001300
C     -2.421600    0.481800    0.812400
