22

O      1.538200   -3.231300    1.400000
C      2.023400   -2.174100    1.014000
O      3.406200   -1.995700    1.015600
C      4.004000   -0.800200    0.581700
C      5.393700   -0.722100    0.622600
C      6.018100    0.449400    0.199300
C      5.250500    1.523500   -0.257400
C      3.855400    1.429500   -0.292400
C      3.224200    0.257900    0.130500
C      1.779300    0.106100    0.115400
C      1.202400   -1.035200    0.529400
C     -0.221900   -1.145800    0.499300
N     -1.071200   -0.210800    0.092300
C     -2.314700   -0.780500    0.250000
C     -3.546600   -0.075400   -0.087200
C     -3.497400    1.232600   -0.592900
C     -4.672200    1.915800   -0.918700
C     -5.909100    1.299200   -0.742500
C     -5.973900    0.000700   -0.241300
C     -4.799600   -0.683400    0.084800
N     -2.269400   -2.025600    0.736300
O     -0.915000   -2.270800    0.901000
