23

O     -2.218700    4.432800    0.057800
C     -1.341900    3.599800   -0.162000
C     -1.471100    2.176100    0.105900
C     -0.464100    1.212100    0.091400
N     -1.077500   -0.046100    0.206600
C     -0.395900   -1.249300   -0.126200
C     -1.188200   -2.533000   -0.299800
C     -1.128500   -3.429300    0.933900
C      0.933200   -1.190400   -0.412700
C      1.659000    0.090300   -0.199400
C      3.187300    0.019700   -0.161700
C      3.706100   -0.428900    1.201900
C      0.985200    1.265200   -0.012600
C      1.763400    2.563800    0.226000
C      2.189900    3.249100   -1.069700
C      1.708500   -2.394000   -0.940800
C      1.860100   -2.350600   -2.458000
C     -2.402800    0.158300    0.622600
C     -2.678400    1.521600    0.487800
C     -3.988100    1.991200    0.751000
C     -4.981700    1.114900    1.184700
C     -4.686800   -0.224600    1.366800
C     -3.406400   -0.716800    1.094300
