22

O      4.272400   -2.406100   -3.151000
C      3.544400   -1.461700   -2.855300
C      2.716200   -1.396400   -1.682400
C      2.521200   -2.282700   -0.645600
C      1.590400   -1.673700    0.229700
C      1.250300   -0.449200   -0.322100
O      1.954400   -0.281900   -1.486000
C      0.364100    0.549300    0.191000
C      0.623500    1.876700    0.443900
C      1.799900    2.565500    0.142700
C      1.747500    3.901900    0.588300
C      0.630200    4.465100    1.276200
C     -0.539200    3.737300    1.584600
C     -0.513500    2.403000    1.144500
N     -1.429400    1.440400    1.296100
N     -0.954200    0.359600    0.605900
C     -1.837000   -0.746900    0.392100
C     -1.625500   -1.683300   -0.628000
C     -2.516300   -2.747400   -0.804700
C     -3.629700   -2.877700    0.022300
C     -3.865000   -1.937100    1.021200
C     -2.979300   -0.872100    1.201600
