15

O     -2.581400   -0.468100    2.519000
S     -1.855100    0.374600    1.354700
O     -2.333100    1.875700    1.688700
N     -0.305200    0.261700    1.498100
C      0.042900   -0.198000    0.286600
S      1.730900   -0.531200   -0.097800
C      2.592200    0.516900    1.123600
C      4.102200    0.481500    0.903500
O      4.455300    1.179800   -0.286800
C     -1.056300   -0.435400   -0.695400
C     -1.060600   -0.910300   -2.031000
C     -2.269200   -1.032400   -2.727600
C     -3.477500   -0.692300   -2.126100
C     -3.517800   -0.220000   -0.811900
C     -2.306500   -0.100300   -0.119700
