16

O     -2.033600    2.144400   -0.119200
C     -2.168000    0.871500   -0.750600
C     -0.850700    0.222100   -0.814400
C      0.239600   -0.281900   -0.866200
C      1.578500   -0.886800   -0.917200
N      2.623600    0.134200   -0.833800
C      2.702100    0.770600    0.484200
C      4.065500    1.447500    0.462000
C      4.881300    0.670400   -0.565000
C      3.955300   -0.433100   -1.051600
C     -3.181100    0.023200   -0.010300
C     -3.347300    0.121800    1.380700
C     -4.269300   -0.685800    2.049400
C     -5.033100   -1.608800    1.338300
C     -4.874400   -1.727100   -0.040800
C     -3.952800   -0.919500   -0.710800
