19

O     -0.602200   -0.730600    0.763100
C     -1.345100    0.422400    0.356600
C     -1.002100    0.816600   -1.102300
N      0.288000    1.503800   -1.213700
C      1.459800    0.826700   -1.114400
N      2.495900    1.378700   -0.528100
C      3.583300    0.523000   -0.558000
C      4.855000    0.781600   -0.006200
C      5.868000   -0.177500   -0.111000
C      5.629000   -1.385800   -0.757900
C      4.377100   -1.665300   -1.314900
C      3.367800   -0.694100   -1.202600
S      1.750200   -0.734600   -1.779400
C     -2.822800    0.132000    0.528000
C     -3.639000    1.014800    1.250200
C     -5.002200    0.755100    1.402500
C     -5.564200   -0.387000    0.835400
C     -4.764800   -1.272100    0.115400
C     -3.402100   -1.014900   -0.038600
