24

O      0.855900   -0.475100   -2.199400
C      0.713800   -0.650800   -0.782200
C      2.045000   -0.395600   -0.078700
C      3.256100   -0.431200   -0.792500
C      4.478800   -0.220900   -0.150500
C      4.515100    0.021200    1.219500
C      3.330300    0.049000    1.949300
C      2.107000   -0.162200    1.308400
C      0.271300   -2.100800   -0.536600
C     -1.191800   -1.957600   -0.212100
N     -1.900800   -3.032000   -0.107900
N     -3.242500   -2.925700    0.077200
C     -3.994600   -3.754800    0.865800
N     -5.262300   -3.413200    0.813500
N     -5.373300   -2.379600   -0.086000
C     -4.169500   -2.133600   -0.551300
C     -1.548600   -0.540800   -0.003200
C     -0.464000    0.188900   -0.307100
C     -0.433500    1.669400   -0.228100
C      0.477600    2.425500   -0.982200
C      0.509600    3.821800   -0.898500
C     -0.367100    4.492200   -0.053000
C     -1.271300    3.766000    0.713500
C     -1.301100    2.369700    0.629400
