18

O      2.600700    1.733400   -1.333300
C      3.476700    0.921300   -0.665400
C      3.066400   -0.125300    0.169000
C      1.643300   -0.439800    0.397400
N      0.697200    0.244100   -0.168700
N     -0.545500   -0.251400    0.208300
C     -1.508300    0.415700   -0.344500
C     -2.946600    0.131900   -0.141000
C     -3.444500   -0.892200    0.673800
O     -2.604900   -1.724300    1.357100
C     -4.824600   -1.079900    0.801000
C     -5.711600   -0.247500    0.116600
C     -5.224200    0.773400   -0.695700
C     -3.847000    0.963500   -0.824900
C      4.024600   -0.912300    0.818100
C      5.383800   -0.650000    0.630500
C      5.786200    0.394900   -0.202600
C      4.832400    1.180800   -0.850800
