21

O      7.439600   -0.342100   -0.166000
C      6.064300   -0.428300   -0.153700
C      5.414500   -1.591300   -0.067800
O      4.048900   -1.753000   -0.050300
C      3.271500   -0.621300   -0.128500
C      1.886500   -0.798100   -0.110000
C      1.017900    0.305900   -0.183800
C     -0.441900    0.121700   -0.164000
C     -1.250000    0.807600    0.746900
C     -2.643200    0.627500    0.763900
C     -3.302500   -0.232100   -0.130200
N     -4.689200   -0.420700   -0.099100
C     -5.517800    0.532900    0.636500
C     -5.340100   -1.080700   -1.229600
C     -2.472400   -0.924400   -1.027300
C     -1.078300   -0.751700   -1.050300
C      1.582800    1.591900   -0.276900
C      2.968900    1.773700   -0.296300
C      3.807600    0.661700   -0.221500
C      5.270400    0.819500   -0.239200
O      5.835100    1.904600   -0.318900
