25

O      4.488300   -1.368300   -0.615200
C      4.717200   -0.597700    0.565000
C      3.506100   -0.707100    1.506500
C      3.755800    0.037700    2.814800
N      2.269500   -0.258000    0.863000
C      1.074500   -1.136800    0.806900
C      0.119900   -0.219800    0.157500
C      0.699700    0.996600   -0.074600
N     -0.186900    1.835000   -0.660900
C     -0.031000    3.155500   -1.069000
C     -1.062000    3.794100   -1.647600
C     -2.326600    3.086000   -1.843500
C     -3.409200    3.773000   -2.470100
N     -4.289000    4.334400   -2.977700
C     -2.471700    1.803100   -1.443000
C     -1.384900    1.115400   -0.813300
C     -1.208200   -0.168300   -0.292800
C     -2.223200   -1.201300   -0.267700
C     -2.001500   -2.414300   -0.929700
C     -2.970600   -3.419100   -0.897600
C     -4.161400   -3.218600   -0.200300
C     -4.385300   -2.014900    0.466800
C     -3.418100   -1.008400    0.435500
C      2.049700    1.032500    0.363800
O      2.835400    1.961600    0.310400
