24

O      3.534200    0.317600    4.620000
C      2.774800   -0.229700    3.544200
C      2.517300    0.827200    2.454300
C      3.815100    1.263500    1.772300
N      1.534900    0.378300    1.472900
C      0.338200    1.192900    1.154300
C     -0.266100    0.359500    0.093900
C      0.508100   -0.740800   -0.139600
N     -0.041000   -1.502100   -1.111100
C      0.420100   -2.698900   -1.651000
C     -0.283600   -3.303000   -2.620900
C     -1.520900   -2.687700   -3.087800
C     -2.262900   -3.337600   -4.119900
N     -2.869300   -3.862000   -4.958900
C     -1.963200   -1.524400   -2.558600
C     -1.228900   -0.859600   -1.521600
C     -1.377800    0.312400   -0.769600
C     -2.527600    1.393300   -0.832200
C     -3.630100    1.383800   -1.660100
C     -4.480100    2.515400   -1.462200
C     -3.999500    3.356400   -0.487000
S     -2.537900    2.782300    0.179300
C      1.659500   -0.774200    0.691200
O      2.548100   -1.607400    0.717100
