24

O     -5.895100   -1.043300   -0.615300
C     -5.715800    0.329500   -0.962200
C     -4.730900    1.054900   -0.025400
C     -5.139500    0.932900    1.444100
N     -3.344900    0.625900   -0.205100
C     -2.957000   -0.800100   -0.374100
C     -1.485900   -0.674700   -0.290100
C     -1.128000    0.625000   -0.058300
N      0.218300    0.733100    0.027300
C      1.013700    1.849300    0.255600
C      2.348400    1.708300    0.297300
C      2.943300    0.384000    0.102200
C      4.402200    0.176000    0.132400
C      5.018200   -0.375200    1.263200
C      6.401400   -0.562500    1.289700
C      7.176100   -0.198000    0.188900
C      6.570300    0.355200   -0.938700
C      5.187200    0.543700   -0.967300
C      2.156400   -0.695300   -0.120300
C      0.734400   -0.556600   -0.165000
C     -0.316600   -1.453600   -0.365800
C     -0.220100   -2.914600   -0.606100
C     -2.257900    1.479600    0.034900
O     -2.288600    2.673300    0.282300
