26

Si    -0.988400   -2.088100   -0.796500
C      0.724500   -1.253400   -0.511200
C      2.068200   -1.598200   -0.690800
C      2.901400   -0.549100   -0.292700
S      1.964000    0.806900    0.282600
C      0.521600    0.006600    0.003200
C     -0.836700    0.384100    0.196400
N     -1.434700    1.516000    0.670900
C     -2.816300    1.339800    0.641200
C     -3.878000    2.205300    1.022100
C     -5.227400    1.799100    0.898400
C     -5.358100    0.514200    0.384000
C     -6.547600   -0.137000    0.156600
N     -6.247600   -1.389400   -0.357700
C     -4.878500   -1.553700   -0.464800
C     -4.354600   -0.382900   -0.008000
C     -3.013000    0.054000    0.128300
C     -1.810300   -0.537400   -0.146200
C      4.345100   -0.527600   -0.327900
S      5.310300   -1.868600   -0.900200
C      6.821900   -1.063700   -0.620400
C      6.543800    0.155600   -0.118200
C      7.213800    1.304300    0.326500
C      6.196700    2.183700    0.713500
O      4.920100    1.681800    0.549200
C      5.208900    0.448600    0.041000
