23

O      4.851100   -0.060300    0.976400
C      4.276700    1.133700    0.448300
C      3.536500    0.892600   -0.885300
C      3.431000    2.188800   -1.686800
N      2.228100    0.265500   -0.661600
C      0.966900    1.040900   -0.510100
C      0.046100   -0.041100   -0.115100
C      0.717400   -1.225400    0.008300
N     -0.130400   -2.208100    0.395200
C      0.120600   -3.553700    0.647700
C     -0.892700   -4.355100    1.013800
C     -2.228200   -3.792800    1.127900
C     -2.474500   -2.490400    0.886600
C     -1.403500   -1.620900    0.510300
C     -1.302400   -0.262100    0.205200
C     -2.403500    0.679100    0.224400
C     -3.115100    0.918300    1.405800
C     -4.162500    1.841400    1.420800
C     -4.501200    2.531400    0.257400
C     -3.793300    2.301000   -0.921700
C     -2.744600    1.379000   -0.938600
C      2.097400   -1.078900   -0.280900
O      2.996300   -1.897100   -0.174400
