19

O     -5.604300   -0.888200   -0.817800
C     -5.140500    0.268100   -0.123600
C     -3.621300    0.381600   -0.242500
O     -3.022800   -0.569800    0.644300
C     -1.653200   -0.615200    0.685700
C     -0.791400    0.174100   -0.086000
C      0.565300   -0.008800    0.092400
C      1.075100   -0.976400    1.038600
C      2.522800   -0.924800    0.989000
N      3.623900   -1.432300    1.488000
C      4.652800   -0.738600    0.807800
C      4.142300    0.181600   -0.094400
N      2.815000    0.014400    0.069100
C      1.743800    0.630000   -0.533600
C      2.039300    1.565300   -1.450700
C      3.478600    1.825100   -1.705700
C      4.482400    1.167600   -1.061200
C      0.232300   -1.753600    1.795800
C     -1.141600   -1.562600    1.608200
