25

Si     3.110900   -1.520500    0.489600
C      4.504300   -0.273000    0.439400
C      5.884400   -0.188400    0.557900
C      6.179500    1.155300    0.389400
N      5.005900    1.857500    0.175400
C      3.968300    0.973600    0.206300
C      2.531800    1.119300    0.048700
C      1.815500    2.267100   -0.187900
N      0.466800    2.281700   -0.318700
C     -0.224800    1.129500   -0.215100
C     -1.631200    1.241100   -0.366600
C     -2.602500    0.193800   -0.312800
C     -4.037400    0.414900   -0.489500
N     -4.481600    1.664700   -0.305600
C     -5.787300    1.833200   -0.497200
N     -6.654500    0.890900   -0.852400
C     -6.101600   -0.306700   -1.016300
N     -4.815800   -0.608300   -0.853100
C     -1.952100   -1.021500   -0.065400
C     -2.526300   -2.260900    0.093100
N     -1.518300   -3.164600    0.323700
C     -0.300700   -2.520700    0.332100
C     -0.531900   -1.185400    0.098900
C      0.425000   -0.127100    0.031400
C      1.833900   -0.111900    0.163200
