21

S      1.139700   -1.845800    1.366700
C      1.011500   -0.703400    0.137200
N      2.097600   -0.290000   -0.644400
C      3.477100   -0.247500   -0.341600
C      4.373900   -0.250000   -1.417800
C      5.751600   -0.169900   -1.197600
C      6.244100   -0.067500    0.100400
C      5.358600   -0.035700    1.174800
C      3.980100   -0.116300    0.954100
N     -0.174000   -0.076600   -0.273600
C     -0.277300    1.077700   -1.204000
C     -1.756400    1.501000   -1.186500
N     -2.339900    0.519600   -0.300600
C     -1.431900   -0.354200    0.217300
N     -2.002100   -1.205800    1.023800
C     -3.339600   -0.845100    1.014200
C     -4.420300   -1.414400    1.703400
C     -5.696400   -0.863000    1.528900
C     -5.895800    0.234000    0.685600
C     -4.834100    0.820600   -0.013600
C     -3.573300    0.252600    0.176100
