32

Si     5.073200   -0.652000   -1.912500
C      6.307200    0.177100   -0.661200
C      7.648000    0.491900   -0.839900
C      8.327800    1.090600    0.223600
C      7.673900    1.365800    1.437800
C      6.323200    1.048700    1.618100
C      5.642100    0.455400    0.569300
C      4.245900    0.043200    0.532900
N      3.253100    0.109100    1.462400
C      2.114000   -0.430400    0.887700
C      0.766000   -0.665800    1.268600
C      0.071300   -1.242500    0.220500
S      1.031700   -1.533000   -1.182100
C      2.400300   -0.837300   -0.393400
C      3.747500   -0.535800   -0.615500
C     -1.315900   -1.629900    0.240100
S     -1.641600   -3.255400    0.717400
C     -3.322100   -3.046000    0.561200
C     -3.653000   -1.771100    0.163600
C     -2.484800   -0.926800   -0.033100
C     -2.587900    0.447900   -0.450700
C     -1.511300    1.351600   -0.680500
C     -1.730900    2.664400   -1.080800
C     -3.025200    3.107900   -1.262400
C     -4.098900    2.236900   -1.046700
C     -3.950000    0.885500   -0.639500
C     -5.119500    0.010400   -0.432600
C     -6.458500    0.446100   -0.622200
C     -7.578700   -0.375900   -0.430400
C     -7.418600   -1.691900   -0.034500
C     -6.137700   -2.185500    0.169900
C     -4.998100   -1.355000   -0.023300
