29

Si     3.952600   -1.049200   -0.613400
C      4.888500    0.626300   -0.562000
C      6.241900    0.893100   -0.688500
C      6.621200    2.227000   -0.606400
N      5.765400    3.267800   -0.413400
C      4.447100    2.974500   -0.292400
C      3.967100    1.685100   -0.359600
C      2.600700    1.206000   -0.252100
N      1.416700    1.841300   -0.053800
C      0.394900    0.901900   -0.031400
C     -0.975500    1.113200    0.139200
C     -1.848000    0.008800    0.134600
C     -3.282800    0.278900    0.281900
C     -4.175200    0.293000   -0.817800
C     -5.560800    0.553100   -0.700700
C     -6.185700    0.827200    0.526700
C     -5.348600    0.834600    1.668100
N     -5.749300    1.076100    2.925800
S     -4.394700    0.964000    3.878600
N     -3.240000    0.614600    2.741900
C     -3.866200    0.558100    1.552900
C     -1.335500   -1.306300   -0.032600
C     -2.158600   -2.458700   -0.025000
C     -1.638600   -3.743700   -0.195900
C     -0.275300   -3.919500   -0.377600
C      0.570800   -2.811800   -0.384200
C      0.064600   -1.503200   -0.211500
C      0.946600   -0.377900   -0.212100
C      2.324600   -0.142600   -0.347700
