22

Si    -1.020700    4.140700    0.189900
C     -1.773100    2.440200    0.319300
C     -0.865600    1.459300    0.126500
C      0.517800    1.968400   -0.078500
C      0.622900    3.315800   -0.086100
C      1.661700    1.016300   -0.153900
C      2.995400    1.506700   -0.394500
C      4.155800    0.713600   -0.368300
C      3.870000   -0.601600   -0.026200
C      4.881800   -1.517800    0.126100
S      4.270400   -3.032700    0.628900
C      2.652600   -2.445400    0.644300
C      2.541500   -1.143800    0.208200
C      1.355600   -0.373500    0.085700
C     -0.053000   -0.834300    0.131400
Si    -0.640100   -2.638000   -0.095700
C     -2.356500   -2.035800   -0.115500
C     -3.597000   -2.752100   -0.280700
C     -4.676700   -1.946500   -0.301200
Si    -4.170800   -0.127400   -0.103800
C     -2.411400   -0.689600    0.009900
C     -1.131400    0.017900    0.126100
