23

Si     0.290400    4.114400    0.735300
C      1.352700    2.610200    0.551100
C      0.630700    1.497500    0.305600
C     -0.839400    1.727500    0.239200
C     -1.193500    3.017800    0.437500
C     -1.793300    0.604200   -0.024900
C     -3.209800    0.861600   -0.082700
C     -4.193100   -0.114800   -0.323400
C     -3.640000   -1.376500   -0.502500
C     -4.446400   -2.460500   -0.749100
S     -3.523700   -3.887100   -0.930100
C     -2.046400   -3.040100   -0.676100
C     -2.221100   -1.692000   -0.454600
C     -1.222900   -0.711100   -0.212000
C      0.246100   -0.873600   -0.133800
S      1.088500   -2.341600   -0.327700
C      2.622000   -1.632200   -0.093500
C      3.878000   -2.257800   -0.111200
C      4.992900   -1.459600    0.108100
C      4.806300   -0.109500    0.329000
N      3.616400    0.517400    0.351600
C      2.515100   -0.262300    0.136600
C      1.141900    0.166200    0.111500
