30

Si    -1.487400    1.975100   -2.891500
C     -2.730900    1.345100   -1.655600
C     -2.125800    0.749200   -0.606600
C     -2.804000    0.131800    0.540900
C     -2.013600   -0.404000    1.501000
C     -0.553700   -0.388600    1.441400
C      0.144000    0.155800    0.416600
C      1.562300    0.111600    0.490500
S      2.519200   -1.331900    0.456100
C      4.039600   -0.477000    0.568500
C      5.320200   -1.136900    0.573000
C      6.507200   -0.646800    0.056700
C      7.601900   -1.543500    0.234700
C      7.221300   -2.693400    0.886000
S      5.558300   -2.686800    1.275600
C      3.745500    0.845800    0.620000
C      4.377500    2.100500    0.725900
C      3.336800    3.036500    0.729300
O      2.076000    2.480900    0.636900
C      2.406800    1.159400    0.578400
C     -0.638300    0.754800   -0.672900
C     -0.133800    1.332300   -1.783600
C     -4.210600    0.038600    0.720200
S     -5.110900    0.814400    1.989500
C     -6.641700    0.198000    1.431500
C     -6.405700   -0.548400    0.332300
C     -7.093100   -1.320800   -0.616400
C     -6.099400   -1.795600   -1.482400
O     -4.819600   -1.383500   -1.159500
C     -5.089400   -0.633800   -0.053400
