28

Si    -1.602200   -3.587800    0.428800
C     -2.895800   -2.349500   -0.100700
C     -2.369300   -1.114500   -0.241800
C     -3.099000    0.096400   -0.646100
C     -2.373500    1.231200   -0.779400
C     -0.936500    1.301700   -0.525600
C     -0.200100    0.235400   -0.136800
C      1.192800    0.451000    0.078300
S      2.392300   -0.158900   -1.037800
C      3.738400    0.479000   -0.141400
C      5.124600    0.319100   -0.544600
N      5.366700   -0.457100   -1.605100
C      6.652200   -0.562800   -1.927000
N      7.668000    0.021100   -1.297400
C      7.300200    0.767500   -0.259300
N      6.055500    0.957100    0.165400
C      3.238600    1.114900    0.938600
O      3.926500    1.761900    1.923000
C      2.876300    2.183700    2.715500
C      1.614200    1.812200    2.240200
C      1.868700    1.100900    1.055600
C     -0.906500   -1.040000    0.027000
C     -0.347500   -2.209300    0.402800
C     -4.498800    0.196500   -0.891300
C     -5.260500    0.677400   -1.939900
C     -6.624400    0.526000   -1.589000
C     -6.663700   -0.032900   -0.331900
N     -5.371800   -0.223900    0.085300
