31

Si    -1.699100   -1.894600   -3.025600
C     -2.771700   -1.547400   -1.536500
C     -2.063200   -0.973500   -0.541800
C     -2.585200   -0.573700    0.769700
C     -1.717500    0.016200    1.625700
C     -0.310700    0.249100    1.305400
C      0.244900   -0.105300    0.123700
C      1.625300    0.193300   -0.068500
S      2.860300   -0.917400    0.411100
C      4.147300    0.101400   -0.129700
C      5.544400   -0.285600   -0.009200
N      5.869600   -1.084200    1.012200
C      7.157200   -1.408800    1.062800
N      8.097600   -1.012900    0.208000
C      7.647700   -0.224100   -0.766000
N      6.390400    0.172600   -0.933600
C      3.642400    1.260600   -0.660600
S      4.426500    2.734200   -1.370900
C      2.788600    3.325300   -1.601400
C      1.760400    2.481700   -1.170600
C      2.246400    1.270200   -0.612500
C     -0.630700   -0.739700   -0.866500
C     -0.260600   -1.150900   -2.097400
C     -3.928900   -0.737000    1.217700
S     -4.567500   -2.319400    1.627800
C     -6.134200   -1.709600    2.054300
C     -6.112200   -0.376800    1.879100
O     -7.140200    0.486400    2.101200
C     -6.523700    1.675000    1.751100
C     -5.191700    1.532100    1.339700
C     -4.928600    0.153500    1.431100
