31

Si    -1.787700   -3.100900    1.463200
C     -0.384500   -1.997400    0.925000
C     -0.834000   -0.938500    0.219800
C     -0.002200    0.120800   -0.361100
C     -0.639100    1.102800   -1.040700
C     -2.091500    1.154200   -1.196200
C     -2.924400    0.212600   -0.694000
C     -4.327200    0.395100   -0.888400
S     -5.062800    0.201900   -2.449500
C     -6.648900    0.538600   -1.865200
C     -6.619100    0.782900   -0.523300
S     -7.936200    1.182300    0.637400
C     -6.653700    1.225700    1.841500
C     -5.359900    0.958800    1.378500
C     -5.324700    0.694200   -0.016200
C     -2.310300   -0.894500    0.048800
C     -2.967300   -1.928200    0.615200
C      1.425800    0.175100   -0.300300
S      2.214800    1.291900    0.770500
C      3.817000    0.785900    0.330000
C      3.700400   -0.210500   -0.601800
Si     4.896800   -1.293600   -1.581200
C      3.383400   -2.133800   -2.396400
C      2.225500   -1.611000   -1.938400
C      2.373300   -0.567600   -0.964900
C      4.999200    1.409300    0.938800
N      4.809100    2.380600    1.834200
C      5.928700    2.889800    2.336400
N      7.167200    2.517100    2.023600
C      7.225800    1.542300    1.120300
N      6.187900    0.946100    0.540300
