18

Si    -4.186200    1.747600    0.708600
C     -4.348800   -0.003100    0.045500
C     -3.133900   -0.542900   -0.172500
C     -2.900600   -1.897500   -0.689300
C     -1.644200   -2.361700   -0.879000
C     -0.582500   -1.473300   -0.553100
N      0.744600   -1.800200   -0.691400
C      1.476700   -0.707400   -0.284400
C      2.755100   -0.201900   -0.106300
Si     4.551600   -0.551800   -0.258500
C      4.884900    1.220000    0.410600
C      3.735700    1.880800    0.673800
C      2.590000    1.083100    0.383400
O      1.262200    1.392400    0.515200
C      0.604700    0.270000    0.096100
C     -0.705100   -0.181600   -0.061300
C     -1.992200    0.362300    0.159000
C     -2.330600    1.577100    0.623900
