29

Si    -6.543200    2.251000   -1.253100
C     -7.475100    0.730500   -0.685100
C     -6.619500   -0.240300   -0.305200
C     -7.004100   -1.551800    0.169700
C     -6.038000   -2.430700    0.497700
C     -4.618100   -2.098500    0.402800
C     -4.174400   -0.885100   -0.021700
C     -2.720900   -0.653500   -0.045600
C     -1.885900   -1.307100   -0.957800
C     -0.516100   -1.051600   -0.941100
C     -0.016000   -0.141800   -0.012700
N     -0.801900    0.516600    0.870900
C     -2.127300    0.240500    0.838700
C      1.425300    0.153400    0.042100
C      1.860700    1.283000   -0.560200
C      3.270500    1.664300   -0.611000
C      4.259800    0.923600   -0.060000
C      5.589800    1.404600   -0.221300
C      6.220000    2.604300    0.062000
C      7.571900    2.484000   -0.338300
C      7.732800    1.222800   -0.870200
N      6.523400    0.578400   -0.806600
C      3.860800   -0.309300    0.639600
C      4.683200   -1.146600    1.308200
Si     3.737300   -2.567200    2.063900
C      2.173500   -1.841100    1.361200
C      2.425800   -0.702800    0.680000
C     -5.182400    0.113900   -0.412700
C     -4.944800    1.353200   -0.889900
