25

Si     6.357600   -1.116900    0.929700
C      6.418800    0.734600    0.697100
C      5.220800    1.206000    0.305000
C      4.919700    2.602800    0.075000
C      3.668700    2.942200   -0.282500
C      2.617000    1.944500   -0.463800
C      2.808100    0.612500   -0.288500
C      1.681000   -0.235600   -0.553900
C      1.625600   -1.484300   -1.163400
C      0.273100   -1.900900   -1.198500
C     -0.459600   -0.891000   -0.616600
O      0.381700    0.112500   -0.238600
C     -1.874800   -0.680300   -0.342300
C     -2.340900    0.441300    0.348000
C     -3.707600    0.603600    0.593300
C     -4.598300   -0.365200    0.136800
N     -4.171800   -1.465900   -0.533000
C     -2.839300   -1.594500   -0.752400
C     -6.058300   -0.291800    0.349500
N     -6.863600   -1.332100    0.486600
C     -8.169100   -0.917700    0.646500
C     -8.365400    0.443700    0.632200
S     -6.867100    1.238700    0.406200
C      4.153800    0.184300    0.134300
C      4.553000   -1.070600    0.431200
