25

Si    -0.732500   -1.269100    0.725100
C     -1.858200    0.102900    0.064500
C     -1.118300    1.135300   -0.397500
C      0.337100    0.956200   -0.282400
N      1.153200    1.933400   -0.717200
C      2.478400    1.698800   -0.579300
C      3.004100    0.524600   -0.023800
C      4.379100    0.294600    0.113000
O      5.408700    1.114500   -0.244300
C      6.557000    0.460300    0.084000
C      6.279000   -0.766200    0.646200
C      4.871700   -0.878900    0.667500
N      4.078000   -1.882300    1.115000
C      2.747100   -1.646900    0.976700
C      2.145800   -0.493400    0.429100
C      0.770400   -0.252800    0.287400
C     -3.308900   -0.063900    0.109600
N     -3.825000   -1.224700    0.635900
C     -5.174000   -1.451300    0.710800
C     -6.192500   -0.604800    0.296000
C     -5.724200    0.602100   -0.252700
N     -6.506700    1.585100   -0.725400
S     -5.490000    2.781700   -1.257100
N     -4.017200    2.108600   -0.912600
C     -4.246600    0.902900   -0.359200
