32

Si    -2.960900   -2.048000   -1.887000
C     -1.261100   -2.540100   -2.612600
C     -0.247600   -1.962400   -1.930800
C     -0.649700   -1.128500   -0.834800
C     -2.048000   -1.014400   -0.603800
C     -2.399100   -0.221300    0.446900
S     -0.971300    0.393900    1.192500
C      0.086800   -0.401200    0.070600
C      1.525400   -0.222200    0.208600
C      2.238500   -0.625800    1.352100
C      3.634900   -0.454500    1.486200
C      4.466400    0.142100    0.501400
C      5.905300    0.307100    0.683700
N      6.485000    1.418200    0.226100
C      7.792100    1.502500    0.454700
N      8.532400    0.607200    1.102500
C      7.844400   -0.445500    1.534200
N      6.539700   -0.652400    1.369300
C      3.793800    0.553800   -0.688300
N      4.345100    1.098900   -1.788600
S      3.124000    1.404300   -2.858800
N      1.826000    0.826300   -2.015600
C      2.288500    0.372100   -0.836400
C     -3.699000    0.135900    0.973200
C     -4.256800   -0.429000    2.144000
C     -5.556400   -0.095100    2.645300
C     -6.426400    0.831200    2.029000
C     -5.868400    1.385400    0.876000
C     -6.528500    2.313800    0.110000
S     -5.573700    2.805000   -1.232500
C     -4.272000    1.774700   -0.781600
C     -4.560300    1.060300    0.358700
