27

Si    -2.730800   -2.839200   -1.284600
C     -0.973100   -3.389200   -1.799500
C     -0.032000   -2.548700   -1.317300
C     -0.536700   -1.453200   -0.540300
C     -1.949000   -1.383600   -0.379000
C     -2.398000   -0.316500    0.340400
S     -1.044800    0.623900    0.855200
C      0.110800   -0.413500    0.085300
C      1.535200   -0.109000    0.195400
C      2.431700   -1.038700    0.723900
C      3.789100   -0.725100    0.807700
C      4.229200    0.517900    0.357200
N      3.377900    1.438400   -0.163800
C      2.064100    1.106200   -0.230000
C      5.659800    0.875200    0.432900
N      6.608300    0.077500    0.900400
C      7.836200    0.705300    0.837200
C      7.826100    1.980600    0.321200
S      6.227100    2.418100   -0.102400
C     -3.735700    0.048400    0.687200
S     -4.734700   -0.915500    1.712300
C     -6.061700    0.178800    1.613800
C     -5.696500    1.203300    0.811600
C     -6.364000    2.368800    0.365600
C     -5.567100    3.148200   -0.480800
S     -3.950200    2.539400   -0.810900
C     -4.409500    1.167200    0.273400
