27

Si    -2.982700   -3.113600    0.181000
C     -1.214600   -3.785000   -0.041800
C     -0.313900   -2.782900   -0.130000
C     -0.861000   -1.457800   -0.040700
C     -2.275700   -1.363000    0.124000
C     -2.775000   -0.093000    0.165500
S     -1.463500    1.021600   -0.004500
C     -0.261500   -0.221200   -0.107100
C      1.129300    0.125600   -0.246000
C      1.685800    0.997200   -1.160500
C      3.098000    1.121400   -1.005500
C      3.592200    0.343200    0.025100
S      2.323600   -0.513700    0.800500
C      4.976300    0.218800    0.496600
C      5.813500    1.338100    0.563800
C      7.130300    1.203500    1.002400
C      7.578900   -0.056300    1.359700
N      6.812500   -1.164800    1.306100
C      5.534900   -1.000800    0.878300
C     -4.124100    0.374100    0.315200
S     -5.214100   -0.272700    1.517400
C     -6.521500    0.772200    1.070300
C     -6.090600    1.549100    0.061300
O     -6.810800    2.507600   -0.581400
C     -5.861400    2.940100   -1.489100
C     -4.633200    2.272900   -1.396700
C     -4.796800    1.343600   -0.351100
