31

Si    -0.421500    3.258300   -1.013400
C     -2.314000    3.398400   -1.309200
C     -2.925400    2.204300   -1.154400
C     -2.054700    1.119000   -0.811700
C     -0.671600    1.417100   -0.676000
C      0.135900    0.362000   -0.347300
S     -0.861000   -1.051300   -0.203600
C     -2.320100   -0.206600   -0.578500
C     -3.589700   -0.938500   -0.605900
C     -3.892900   -1.683200   -1.757900
C     -5.090800   -2.382700   -1.854600
C     -6.001600   -2.342900   -0.802000
C     -5.730200   -1.606300    0.361500
C     -6.663200   -1.578400    1.411700
C     -6.413100   -0.854700    2.576700
C     -5.224700   -0.149500    2.708500
C     -4.286900   -0.167200    1.674000
C     -4.512000   -0.889600    0.477100
C      1.567700    0.357900   -0.142800
N      2.281000    1.460500   -0.266100
C      3.614100    1.189400   -0.020600
C      3.926600   -0.120600    0.290200
S      2.477200   -1.040900    0.272500
C      5.223300   -0.672900    0.575800
S      5.466600   -2.144400    1.488100
C      7.195400   -2.071200    1.389000
C      7.519600   -0.968000    0.688100
N      8.777700   -0.541800    0.377400
C      8.499500    0.614700   -0.346700
C      7.110200    0.843100   -0.447000
C      6.455300   -0.211300    0.248700
