31

Si    -0.261000    1.386300    2.877900
C     -2.120100    1.703300    3.211300
C     -2.892400    1.165400    2.242500
C     -2.174700    0.490900    1.200100
C     -0.756700    0.466600    1.309700
C     -0.111100   -0.205400    0.314100
S     -1.279800   -0.809300   -0.806500
C     -2.619800   -0.165600    0.078200
C     -3.964500   -0.375500   -0.423300
C     -4.610600   -1.635100   -0.443000
C     -5.946300   -1.837400   -0.919000
C     -6.769500   -0.806000   -1.421400
C     -6.126100    0.432200   -1.402400
C     -6.729000    1.582000   -1.848500
S     -5.675900    2.932700   -1.705200
C     -4.409100    1.972000   -1.048700
C     -4.780500    0.652500   -0.926000
C      1.289600   -0.416700    0.120700
S      2.400600    0.871800   -0.135500
C      3.764000   -0.182300   -0.264700
C      5.095200    0.355600   -0.524200
C      5.932400   -0.198400   -1.488200
C      7.195500    0.357300   -1.676200
C      7.583600    1.442500   -0.899800
C      6.688000    1.930500    0.036800
N      5.458000    1.411900    0.242400
C      3.312000   -1.451800   -0.098300
C      3.943800   -2.724700   -0.062100
C      3.042600   -3.769800    0.165800
S      1.359100   -3.316000    0.368300
C      1.942300   -1.620000    0.122000
