30

Si     1.557800   -2.937900    0.016000
C      3.454800   -3.133300    0.167500
C      4.073100   -1.932400    0.175000
C      3.199500   -0.798700    0.076000
C      1.807100   -1.071800   -0.035100
C      1.005700    0.028200   -0.123800
S      1.992400    1.445500   -0.076600
C      3.468800    0.549600    0.064600
C      4.739600    1.266800    0.177400
C      5.547300    1.093900    1.309900
C      6.766700    1.765900    1.421900
C      7.190800    2.615400    0.401600
C      6.397300    2.794300   -0.730200
C      5.177500    2.122900   -0.842500
C     -0.418000    0.104100   -0.253500
S     -1.417100    0.991500    0.860200
C     -2.896600    0.560500    0.064200
C     -4.193600    0.961000    0.508800
S     -4.579200    2.609600    0.924200
C     -6.237600    2.254000    1.297800
C     -6.428600    0.934000    1.105200
N     -7.586900    0.238600    1.293100
C     -7.183400   -1.053000    0.959000
C     -5.821300   -1.094000    0.591600
C     -5.321800    0.233700    0.680300
C     -2.585700   -0.210000   -1.003300
N     -3.438500   -0.745500   -1.928700
C     -2.550800   -1.413000   -2.768800
C     -1.215200   -1.255500   -2.343700
C     -1.239400   -0.457400   -1.169300
