32

Si    -3.402700   -2.461400    1.184500
C     -1.779800   -3.202900    1.876400
C     -0.704300   -2.476600    1.497600
C     -0.999200   -1.340900    0.671600
C     -2.368200   -1.114400    0.363200
C     -2.613500   -0.028300   -0.424800
S     -1.114700    0.727300   -0.828000
C     -0.178100   -0.404000    0.091000
C      1.262300   -0.251700    0.135100
C      2.108300   -0.489400   -0.944000
N      3.472100   -0.365900   -0.966400
C      4.182900    0.066000    0.141300
C      5.639500    0.188600    0.029600
C      6.373400   -0.645400   -0.820000
C      7.756600   -0.494300   -0.905900
C      8.379400    0.491900   -0.151700
C      7.588500    1.290900    0.656400
N      6.247100    1.162900    0.758200
C      3.436200    0.342300    1.325000
N      3.888900    0.731800    2.534200
S      2.578600    0.909700    3.523000
N      1.357100    0.494100    2.488700
C      1.928900    0.177100    1.308900
C     -3.852600    0.522100   -0.923500
C     -4.292400    0.457800   -2.268800
C     -5.546300    1.000300   -2.730100
C     -6.486000    1.660000   -1.899300
C     -6.021400    1.716400   -0.591700
C     -6.638800    2.298400    0.481900
O     -5.852300    2.152400    1.594000
C     -4.723300    1.474600    1.218100
C     -4.784800    1.183300   -0.121900
