31

Si    -2.474600   -1.511200    2.891000
C     -0.824800   -2.454000    3.151700
C      0.103600   -2.089600    2.241500
C     -0.329200   -1.098100    1.297800
C     -1.665700   -0.627000    1.437200
C     -2.041700    0.334300    0.547700
S     -0.713200    0.675600   -0.499500
C      0.329400   -0.478100    0.263000
C      1.661800   -0.696600   -0.218200
C      2.213900   -1.874600   -0.680800
N      3.522400   -1.792300   -1.123400
C      3.979700   -0.568000   -0.948200
S      2.832100    0.549700   -0.311600
C      5.297800   -0.133000   -1.374700
C      5.887800   -0.578700   -2.562100
N      7.110000   -0.217800   -3.081400
C      7.913500    0.661400   -2.421900
C      7.467600    1.165700   -1.184900
N      8.123500    2.028100   -0.395900
S      7.166000    2.266400    0.940400
N      5.874100    1.303200    0.567900
C      6.121700    0.750800   -0.637100
C     -3.286700    1.053000    0.386500
C     -3.452000    2.442300    0.610900
C     -4.703500    3.136600    0.461500
C     -5.915000    2.518300    0.074400
C     -5.724800    1.160100   -0.143200
C     -6.684100    0.268100   -0.543400
N     -6.066700   -0.959900   -0.656800
C     -4.729500   -0.854400   -0.335700
C     -4.491100    0.456500    0.000400
