31

Si     2.239600    0.709700    0.710700
C      3.010800   -0.691700   -0.369300
C      2.029300   -1.392100   -0.990400
C      0.732600   -0.899300   -0.671600
O     -0.490600   -1.321900   -1.083900
C     -1.424200   -0.511600   -0.488100
C     -0.814300    0.450800    0.321600
C      0.549900    0.172600    0.178900
C     -1.649200    1.373100    1.013600
C     -1.055100    2.355400    1.838500
C     -1.833900    3.276000    2.532600
C     -3.213100    3.231000    2.414800
C     -3.816900    2.265200    1.602400
C     -3.073100    1.303700    0.873500
C     -3.680400    0.306200    0.035500
C     -5.130400    0.171900   -0.158500
C     -5.803900   -0.784200   -0.967100
C     -4.886500   -1.615000   -1.580600
C     -5.160100   -2.652000   -2.430600
O     -3.987300   -3.232600   -2.827800
C     -2.966200   -2.552100   -2.220100
C     -3.474600   -1.544100   -1.439800
C     -2.804900   -0.605300   -0.645300
C      4.411900   -0.923000   -0.471500
S      5.047700   -2.229400   -1.488000
C      6.698800   -1.903100   -1.124900
C      6.727000   -0.860600   -0.281700
O      7.849200   -0.296600    0.241300
C      7.274000    0.695100    1.007400
C      5.875300    0.724700    0.947100
C      5.509900   -0.327000    0.075800
