30

Si     4.259900    0.384200    2.579600
C      2.532800    1.010300    3.090200
C      1.633800    0.846300    2.095300
C      2.150700    0.247300    0.896600
C      3.535500   -0.090100    0.906000
C      4.012900   -0.627500   -0.252800
S      2.721900   -0.726700   -1.394300
C      1.552100   -0.055200   -0.305100
C      0.187500    0.107200   -0.718900
S     -1.153300   -0.485500    0.225900
C     -2.345200    0.076100   -0.894000
C     -3.764800   -0.118000   -0.736800
C     -4.596600   -0.732700   -1.709200
C     -6.013600   -0.934200   -1.553600
C     -6.751500   -0.537700   -0.415800
C     -5.922800    0.074100    0.515300
C     -6.322300    0.595300    1.718300
N     -5.198900    1.125200    2.315400
C     -4.096200    0.949000    1.504300
C     -4.513800    0.279200    0.378400
C     -1.699700    0.641100   -1.933700
O     -2.255200    1.190800   -3.050900
C     -1.109300    1.597300   -3.708000
C      0.077800    1.307100   -3.025200
C     -0.328000    0.663200   -1.841300
C      5.339600   -1.084800   -0.562100
C      6.084000   -2.010000    0.145200
C      7.373900   -2.223200   -0.424200
C      7.574100   -1.451000   -1.545900
S      6.214400   -0.479000   -1.906500
