26

Si    -4.090300    1.229300   -1.061800
C     -2.695900    1.495700   -2.333900
C     -1.500900    1.097900   -1.845300
C     -1.531100    0.570700   -0.509600
C     -2.808200    0.518400    0.120400
C     -2.814100    0.005200    1.383500
S     -1.201300   -0.435400    1.813700
C     -0.531500    0.079300    0.299000
C      0.873100   -0.029900    0.044500
S      1.809300   -1.465400    0.285900
C      3.299600   -0.734600   -0.253200
C      4.528000   -1.476100   -0.285700
C      5.801300   -1.057200   -0.643400
C      6.671600   -2.166800   -0.506700
C      5.889400   -3.206400   -0.073300
O      4.602900   -2.804300    0.062400
C      3.019200    0.548800   -0.585200
C      3.638700    1.718400   -1.070000
C      2.619000    2.674100   -1.140600
O      1.382300    2.211200   -0.740200
C      1.704000    0.924100   -0.423000
C     -3.923300   -0.204500    2.272900
C     -5.078600   -0.914100    2.004900
C     -5.988700   -0.910900    3.102900
C     -5.499900   -0.195900    4.172600
S     -3.955400    0.463800    3.851300
