30

Si     2.997100   -1.874800    2.132600
C      1.265000   -2.627100    2.411200
C      0.311100   -1.919100    1.767900
C      0.787300   -0.781400    1.033100
C      2.191200   -0.545900    1.069300
C      2.612500    0.548900    0.376000
S      1.248800    1.318800   -0.346600
C      0.120700    0.166000    0.290700
C     -1.287500    0.270800    0.009300
S     -2.170600    1.685300    0.421300
C     -3.663000    1.063700   -0.176100
C     -4.859600    1.864400   -0.100600
C     -6.147800    1.576500   -0.529900
C     -6.964200    2.693000   -0.225600
C     -6.138400    3.608600    0.374000
O     -4.875800    3.124400    0.455100
C     -3.485900   -0.209000   -0.679100
N     -4.487500   -0.965300   -1.223600
C     -4.027400   -2.173800   -1.641700
C     -2.705300   -2.611600   -1.535100
N     -1.687600   -1.892500   -0.996900
C     -2.115000   -0.666700   -0.568200
C      3.940800    1.050400    0.198400
S      4.442400    2.577600    0.824300
C      6.056600    2.400200    0.243600
C      6.198600    1.208800   -0.408200
S      7.624100    0.468200   -1.221200
C      6.532400   -0.861900   -1.587000
C      5.218400   -0.731700   -1.122000
C      5.007600    0.483600   -0.416700
