32

Si    -3.101100   -2.810900    2.093100
C     -1.460500   -2.597300    3.054000
C     -0.637500   -1.721900    2.436400
C     -1.152300   -1.156200    1.222000
C     -2.450600   -1.581600    0.823100
C     -2.923100   -1.013600   -0.323600
S     -1.733900    0.078800   -0.939000
C     -0.619300   -0.239600    0.346900
C      0.659800    0.413200    0.381800
S      2.110300   -0.496300    0.197700
C      3.108400    0.895300    0.312100
C      4.544800    0.754400    0.193800
C      5.376800    0.231300    1.186300
N      6.742500    0.087500    1.136900
C      7.445300    0.482900    0.033500
C      6.731500    1.033700   -1.050600
N      7.248400    1.471000   -2.210500
S      5.966400    2.008100   -3.119200
N      4.703600    1.697900   -2.090300
C      5.232900    1.172900   -0.969600
C      2.354400    2.028600    0.510400
N      2.897300    3.270700    0.671300
C      1.924700    4.205800    0.845900
C      0.550600    3.943500    0.877400
N     -0.015600    2.715000    0.738800
C      0.935500    1.753500    0.545600
C     -4.183000   -1.204200   -1.037200
C     -5.088400   -0.145600   -1.188500
C     -6.299700   -0.339800   -1.856100
C     -6.616300   -1.593300   -2.376900
C     -5.722900   -2.653400   -2.232300
C     -4.511500   -2.460400   -1.564600
