29

Si     0.470100    1.699600   -1.757000
C      2.228500    2.413200   -1.790200
C      3.028400    1.791300   -0.897500
C      2.399300    0.751200   -0.131700
C      1.014100    0.521300   -0.388600
C      0.438300   -0.467100    0.358700
S      1.643600   -1.141600    1.401600
C      2.897500   -0.088100    0.838200
C      4.225200   -0.182600    1.366200
S      4.613900   -0.211200    3.060000
C      6.329000   -0.321600    2.781300
C      6.524400   -0.333400    1.446400
C      7.566800   -0.407100    0.510300
C      6.932700   -0.368000   -0.738300
O      5.554700   -0.274800   -0.672900
C      5.385600   -0.257500    0.680200
C     -0.909400   -0.973000    0.384900
N     -1.179000   -2.256100    0.486600
C     -2.547600   -2.446800    0.509200
C     -3.329700   -1.307900    0.417800
S     -2.284200    0.053100    0.318800
C     -4.764800   -1.217800    0.426600
S     -5.782300   -2.459400    1.114900
C     -7.258300   -1.629900    0.739700
C     -6.928400   -0.481400    0.118500
C     -7.533000    0.655400   -0.468000
C     -6.489900    1.474400   -0.947300
N     -5.240300    0.913600   -0.694900
C     -5.580800   -0.247200   -0.055500
