27

Si     0.095200   -1.632900    2.761900
C     -1.684500   -1.995000    3.334500
C     -2.590500   -1.460600    2.488100
C     -2.035400   -0.753100    1.369400
C     -0.612300   -0.702300    1.278100
C     -0.121900   -0.000800    0.212400
S     -1.459300    0.612300   -0.705500
C     -2.645400   -0.074500    0.343400
C     -4.041100    0.094400    0.081800
S     -5.067300   -1.201700   -0.411600
C     -6.460700   -0.191700   -0.505000
C     -6.091500    1.059600   -0.151800
C     -6.796000    2.281800   -0.037100
C     -5.972500    3.334600    0.378500
S     -4.283300    2.937800    0.668000
C     -4.752300    1.260100    0.184800
C      1.230400    0.266400   -0.198900
C      1.746600    1.430200   -0.735500
N      3.090400    1.410200   -1.053400
C      3.608800    0.226500   -0.780800
S      2.481700   -0.903100   -0.118900
C      5.012500   -0.165600   -1.022000
C      5.704100   -1.068200   -0.213700
C      7.030200   -1.371200   -0.519400
C      7.632400   -0.767100   -1.615700
C      6.881800    0.121500   -2.364500
N      5.596400    0.432100   -2.093500
