31

Si    -1.440900    0.622200    3.082500
C     -2.648300    2.065800    3.460300
C     -3.024500    2.701700    2.330300
C     -2.456300    2.180800    1.120000
C     -1.584100    1.063600    1.249700
C     -1.070600    0.561600    0.082800
S     -1.684500    1.531600   -1.220200
C     -2.609800    2.563300   -0.189700
C     -3.373500    3.653700   -0.723700
S     -4.640100    3.424700   -1.874700
C     -5.015300    5.105800   -1.951200
C     -4.193300    5.814000   -1.122600
S     -4.097700    7.578800   -0.778400
C     -2.778000    7.141900    0.299600
C     -2.462900    5.780100    0.373500
C     -3.295400    4.981000   -0.456100
C     -0.153000   -0.566100   -0.158100
C      0.089400   -1.120600   -1.411800
C      0.982400   -2.189200   -1.524600
C      1.625800   -2.691600   -0.392400
C      1.309800   -2.081100    0.817700
N      0.448300   -1.043600    0.959400
C      2.557400   -3.805900   -0.474800
C      2.180000   -5.118000   -0.868100
C      3.079100   -6.231000   -0.944000
C      4.453600   -6.153800   -0.639800
C      4.829300   -4.865000   -0.263200
C      6.123100   -4.547100    0.068200
S      6.272600   -2.882700    0.466000
C      4.600100   -2.589000    0.189900
C      3.933000   -3.734800   -0.180800
