31

Si    -7.986700    1.463700   -0.011700
C     -6.503500    2.299100   -0.886200
C     -5.341400    1.675700   -0.591400
C     -5.464600    0.549600    0.288400
C     -6.774600    0.235200    0.740200
C     -6.852500   -0.833100    1.578900
S     -5.271900   -1.480000    1.830900
C     -4.520200   -0.310900    0.795800
C     -3.084100   -0.363800    0.595400
C     -2.143200   -0.030300    1.595300
C     -0.727400   -0.060500    1.393800
C     -0.098800   -0.430200    0.175500
C      1.345600   -0.461400    0.000500
C      2.113500    0.703700    0.046400
C      3.499000    0.640100   -0.119900
C      4.102700   -0.596600   -0.325500
N      3.381100   -1.742700   -0.371600
C      2.039500   -1.650800   -0.204100
C      5.538800   -0.758800   -0.511500
S      6.255700   -2.120600   -1.327200
C      7.882000   -1.542000   -1.115400
C      7.812600   -0.371900   -0.448800
C      8.656900    0.624600    0.062500
C      7.795600    1.556200    0.654700
O      6.455000    1.230900    0.559400
C      6.546100    0.052400   -0.122200
C     -1.040400   -0.757700   -0.821800
C     -0.712300   -1.120000   -2.109000
S     -2.105400   -1.459200   -3.053700
C     -3.164800   -1.107600   -1.750500
C     -2.477600   -0.726300   -0.620300
