31

Si     8.541900    0.196700   -0.409900
C      7.241000    1.234400   -1.349300
C      5.983800    0.891100   -0.991700
C      5.894000   -0.153200   -0.011600
C      7.124900   -0.693100    0.452100
C      7.008400   -1.686100    1.374000
S      5.338500   -1.981200    1.688400
C      4.806900   -0.757100    0.576900
C      3.378400   -0.529400    0.407800
C      2.497400   -1.523400   -0.062700
C      1.109800   -1.310800   -0.233800
C      0.465000   -0.084800    0.049600
C     -0.968600    0.135400   -0.133200
C     -1.657000    1.251700   -0.570200
N     -3.031800    1.135300   -0.637300
C     -3.411100   -0.061900   -0.236900
S     -2.111900   -1.096500    0.229300
C     -4.790100   -0.533400   -0.161000
C     -5.229100   -1.874400   -0.351500
C     -6.602700   -2.303600   -0.272400
C     -7.688000   -1.443900    0.004200
C     -7.242900   -0.141800    0.183700
C     -8.037200    0.938600    0.468600
N     -7.202400    2.030500    0.570600
C     -5.893600    1.652100    0.360100
C     -5.884800    0.301000    0.106400
C      1.308300    0.964700    0.527000
N      0.937500    2.213900    0.864100
S      2.296400    3.009800    1.370900
N      3.435400    1.828200    1.175500
C      2.800900    0.736000    0.712100
