31

Si    -8.043300    0.255900   -0.847800
C     -6.614200    1.519600   -0.867200
C     -5.487800    1.002200   -0.328800
C     -5.597100   -0.354300    0.131400
C     -6.872400   -0.967500   -0.026100
C     -6.962800   -2.242600    0.437500
S     -5.443300   -2.719100    1.096800
C     -4.685500   -1.198400    0.726900
C     -3.298300   -0.982500    1.050400
C     -2.671200   -1.238800    2.253700
C     -1.282000   -0.915700    2.224900
C     -0.878100   -0.420200    0.999400
S     -2.187700   -0.381700   -0.105700
C      0.450000   -0.005700    0.615100
S      1.818200   -0.959900    1.053000
C      2.934100    0.085800    0.269400
C      4.348900   -0.246500    0.294600
C      5.122700   -0.313100    1.480600
C      6.516800   -0.640800    1.508200
C      7.279500   -0.936900    0.358400
C      6.514400   -0.872800   -0.806500
C      7.044500   -1.129500   -2.046700
S      5.852800   -0.981400   -3.275300
C      4.625600   -0.573600   -2.140800
C      5.108300   -0.541200   -0.852300
C      2.280000    1.156400   -0.298300
N      2.920900    2.157800   -0.969900
C      2.041200    3.091300   -1.417400
C      0.658100    3.050200   -1.221400
N     -0.008500    2.070600   -0.556200
C      0.847100    1.107700   -0.098300
