32

Si    -8.049200   -0.690000    0.550400
C     -6.836500   -1.384500   -0.756600
C     -5.583100   -0.916000   -0.568000
C     -5.432300   -0.013800    0.538200
C     -6.604500    0.260600    1.295000
C     -6.425300    1.102200    2.348800
S     -4.769000    1.581500    2.423300
C     -4.331400    0.649400    1.029200
C     -2.991400    0.655100    0.530200
S     -1.615700    0.107200    1.427100
C     -0.498100    0.402300    0.123800
C      0.904900    0.153000    0.233800
S      2.088300    1.354300   -0.120900
C      3.415300    0.317200    0.248400
C      4.778900    0.739400    0.132000
S      5.366800    2.239700    0.799000
C      6.999800    1.973300    0.271600
C      7.035500    0.791400   -0.374600
N      8.124500    0.207600   -0.952900
C      7.564800   -0.962600   -1.462300
C      6.183800   -1.043500   -1.181800
C      5.833800    0.123200   -0.449800
C      2.904000   -0.886900    0.609000
C      3.482600   -2.115300    1.030200
C      2.527800   -3.101100    1.296800
S      0.850300   -2.640000    1.070100
C      1.511800   -1.016900    0.608600
C     -1.211700    0.918900   -0.903300
C     -1.062400    1.404300   -2.229900
C     -2.342300    1.793500   -2.679000
N     -3.314000    1.582300   -1.704200
C     -2.565900    1.056800   -0.687800
