28

Si     1.959800    1.062100   -0.779300
C      3.066300   -0.346500   -0.055200
C      2.322000   -1.282000    0.574600
C      0.929100   -0.980500    0.515000
S     -0.340500   -1.911400    1.139600
C     -1.569800   -0.781100    0.594600
C     -0.914200    0.277200   -0.048700
C      0.464300    0.161000   -0.109800
C     -1.733600    1.329700   -0.559200
C     -1.388600    2.480600   -1.204500
N     -2.581900    3.128400   -1.456000
C     -3.638600    2.375000   -0.976700
C     -3.125600    1.230900   -0.396200
C     -3.868100    0.203700    0.220400
C     -5.295200    0.188300    0.328600
C     -5.994700   -0.854600    0.943400
C     -5.212200   -1.912100    1.468500
N     -5.711400   -2.995300    2.085800
S     -4.414800   -3.932200    2.516900
N     -3.168000   -3.016200    1.939900
C     -3.695200   -1.913600    1.369900
C     -3.001300   -0.835600    0.729900
C      4.515900   -0.317200   -0.200400
C      5.344900   -0.304800    0.924400
C      6.728700   -0.265500    0.765100
C      7.243600   -0.243300   -0.519600
N      6.480000   -0.257700   -1.635400
C      5.138900   -0.301100   -1.446800
