32

Si    -5.703100   -0.278300    1.910900
C     -7.609700   -0.129600    1.851400
C     -8.038400    0.213200    0.617300
C     -7.000400    0.386400   -0.353200
C     -7.063300    0.722700   -1.677300
S     -5.479200    0.775700   -2.370700
C     -4.712800    0.341000   -0.880200
C     -5.664000    0.182100    0.083000
C     -3.272400    0.221600   -0.822200
C     -2.430300    1.203700   -0.308500
N     -1.065300    1.145400   -0.195300
C     -0.345500    0.048800   -0.621700
C      1.107400    0.072900   -0.445700
C      1.698000    0.804700    0.592200
C      3.085100    0.822400    0.763400
C      3.892000    0.104100   -0.113600
N      3.353100   -0.586800   -1.149800
C      1.999700   -0.591200   -1.283200
C      5.355700    0.067800   -0.035200
C      6.176900    0.008100   -1.193900
C      7.591100   -0.034400   -1.174200
C      8.335800   -0.025600    0.011600
C      7.590700    0.019900    1.212900
N      8.116000    0.033800    2.447300
S      6.838400    0.037000    3.503200
N      5.562800    0.058600    2.447600
C      6.074400    0.058600    1.200700
C     -1.090100   -1.039800   -1.164300
N     -0.621800   -2.219100   -1.614000
S     -1.928400   -3.108900   -2.104400
N     -3.157700   -2.054300   -1.771700
C     -2.598700   -0.942600   -1.260200
