29

Si    -6.008300   -1.361700   -0.898300
C     -7.825700   -0.768300   -1.018900
C     -8.002700    0.404300   -0.371800
C     -6.826200    0.933600    0.247000
C     -6.640200    2.081400    0.965100
S     -4.998100    2.221400    1.473000
C     -4.518900    0.724500    0.718700
C     -3.189200    0.255900    0.809400
Si    -1.677200    1.239600    0.250700
C     -0.637600   -0.254500    0.746100
C     -1.407700   -1.248400    1.232900
C     -2.836500   -0.963000    1.266400
C      0.760100   -0.312900    0.597800
S      1.854500    0.747200    1.404700
C      3.254500    0.014500    0.712800
C      4.581600    0.480900    0.982300
S      5.163400    0.807700    2.593600
C      6.749600    1.267700    2.057100
C      6.776300    1.161400    0.714000
N      7.830400    1.434700   -0.107600
C      7.277100    1.160600   -1.357000
C      5.933600    0.741200   -1.249900
C      5.603300    0.735000    0.132200
C      2.832300   -0.994000   -0.090700
C      3.497700   -1.958900   -0.895700
C      2.613200   -2.818400   -1.555100
S      0.903600   -2.550200   -1.261700
C      1.453800   -1.205400   -0.178600
C     -5.626300    0.183400    0.122600
