30

Si     6.213000   -1.777300   -0.478300
C      8.019300   -1.243300   -0.807700
C      8.143200    0.101900   -0.800200
C      6.928200    0.815700   -0.551700
C      6.684900    2.160200   -0.487200
S      5.014900    2.460600   -0.167100
C      4.617100    0.774300   -0.111400
C      3.283400    0.320000    0.158800
C      2.876600   -0.624400    1.081000
N      1.521800   -0.896600    1.113900
C      0.896100   -0.127800    0.246900
S      1.910900    0.892700   -0.696500
C     -0.533500   -0.172000   -0.005000
C     -1.183100   -1.338300   -0.476600
C     -2.585800   -1.418700   -0.738600
C     -3.485300   -0.344100   -0.542800
C     -4.909900   -0.443600   -0.782700
S     -5.518100   -0.767700   -2.385800
C     -7.180000   -0.734100   -1.887700
C     -7.201600   -0.492600   -0.564900
O     -8.306400   -0.392300    0.222300
C     -7.699600   -0.152900    1.442700
C     -6.300000   -0.110500    1.390300
C     -5.979300   -0.335800    0.039600
C     -2.851400    0.814300   -0.053400
C     -3.491700    2.003900    0.210800
S     -2.414000    3.188500    0.826900
C     -1.070200    2.125200    0.723600
C     -1.423600    0.897600    0.210400
C      5.751400    0.047600   -0.335700
