24

Si     1.731500    0.678500   -1.088700
C      2.843900   -0.096900    0.306300
C      2.073300   -0.658800    1.270500
C      0.679400   -0.528500    1.000600
S     -0.609400   -1.091000    1.950800
C     -1.814900   -0.474900    0.832800
C     -1.156000    0.139900   -0.227900
C      0.226800    0.108800   -0.132300
C     -1.931900    0.727900   -1.283900
N     -1.377700    1.330300   -2.326100
S     -2.706800    1.817000   -3.220300
N     -3.948900    1.247200   -2.255900
C     -3.378600    0.648700   -1.187500
C     -4.056700    0.018700   -0.100700
C     -5.456900   -0.058400   -0.006600
C     -5.998900   -0.694500    1.095000
N     -5.262500   -1.245400    2.084800
C     -3.913200   -1.161500    1.977100
C     -3.244400   -0.544800    0.913300
C      4.269900   -0.049700    0.265300
C      5.118600    0.505000   -0.686600
C      6.504400    0.356500   -0.384100
C      6.700000   -0.311600    0.798300
S      5.227400   -0.752300    1.530900
