28

Si     5.575500   -1.536500   -2.095300
C      7.377800   -0.991700   -1.981000
C      7.507900    0.083100   -1.185000
C      6.270100    0.578900   -0.601500
C      5.144300   -0.097500   -0.928500
C      3.760400    0.145100   -0.513400
C      3.414500    1.187900    0.337500
C      2.074000    1.371700    0.700700
C      1.074000    0.522100    0.221000
C      1.526700   -0.490700   -0.624900
N      2.820700   -0.694500   -0.995600
C     -0.343300    0.677900    0.575700
S     -1.598700   -0.363000   -0.007000
C     -2.894700    0.454100    0.830700
C     -4.281300    0.027400    0.737200
S     -5.526800    0.882100    1.595000
C     -6.776700   -0.133000    1.031100
C     -6.286100   -1.107900    0.207600
N     -7.088900   -2.043700   -0.370600
C     -6.360900   -2.895500   -1.140000
C     -4.976600   -2.828600   -1.319800
N     -4.157800   -1.903800   -0.752700
C     -4.851200   -1.024700    0.031700
C     -2.309800    1.476200    1.510900
C     -2.640300    2.541900    2.376900
C     -1.431500    3.181200    2.661800
O     -0.338300    2.612900    2.047200
C     -0.941700    1.592200    1.371100
