29

Si    -6.427400   -1.553600   -0.313300
C     -7.970800   -0.509400   -0.573100
C     -7.668300    0.798400   -0.665900
C     -6.253800    1.118700   -0.549600
C     -5.439500    0.060200   -0.357100
C     -3.990800    0.088000   -0.223500
C     -3.354100   -0.280200    0.960300
C     -1.961200   -0.232100    1.043300
C     -1.222800    0.179900   -0.064600
N     -1.825200    0.569100   -1.215200
C     -3.178400    0.511700   -1.269600
C      0.231800    0.276400   -0.062000
C      0.954100    1.388600   -0.578900
C      2.388600    1.517900   -0.572700
C      3.281700    0.537900   -0.065400
C      4.721900    0.679200   -0.044300
C      5.394500    1.715700    0.619600
N      6.748000    1.944400    0.686800
C      7.624600    1.113100    0.053700
C      7.100700    0.024000   -0.669100
N      7.804100   -0.891100   -1.355400
S      6.694700   -1.929600   -2.022400
N      5.280500   -1.270900   -1.463100
C      5.609400   -0.197200   -0.721500
C      2.560200   -0.557900    0.422700
C      3.048500   -1.705200    0.995800
O      2.016200   -2.538400    1.320700
C      0.855900   -1.918700    0.953000
C      1.130300   -0.681700    0.424800
