32

Si     6.850400   -0.985000   -0.861800
C      8.207500    0.313400   -0.929200
C      7.699600    1.543300   -0.740200
C      6.260900    1.589800   -0.532000
C      5.612000    0.401000   -0.553900
C      4.173000    0.236900   -0.363000
N      3.429900    1.383800   -0.179000
C      2.074400    1.349700    0.014600
C      1.262800    0.221300    0.044300
C     -0.166900    0.245300    0.268100
S     -1.226500    0.494000   -1.057400
C     -2.641000    0.365800   -0.078000
C     -3.944600    0.482700   -0.707200
C     -4.376900    1.580000   -1.498200
C     -5.675400    1.669000   -2.119300
C     -6.676200    0.674300   -2.021200
C     -6.227200   -0.386500   -1.246200
C     -6.914600   -1.530000   -0.940900
O     -6.129200   -2.339600   -0.166200
C     -4.934100   -1.697800    0.023000
C     -4.947400   -0.486900   -0.621600
C     -2.297700    0.158000    1.241700
N     -3.206000    0.037900    2.254100
C     -2.586000   -0.152800    3.449600
C     -1.200700   -0.212800    3.638300
N     -0.269900   -0.088800    2.653400
C     -0.868000    0.093600    1.440400
C      1.958900   -0.995200   -0.137800
N      1.421800   -2.229300   -0.157100
S      2.663100   -3.292600   -0.402100
N      3.942900   -2.249500   -0.508800
C      3.462000   -1.001700   -0.349500
