30

Si     6.237800   -1.572700    1.301500
C      7.816300   -0.770000    0.674700
C      7.537000    0.317200   -0.064000
C      6.120900    0.617000   -0.206900
C      5.262600   -0.226300    0.415000
C      3.807900   -0.096600    0.390600
N      3.283900    0.961000   -0.319800
C      1.935200    1.180900   -0.411300
C      0.918000    0.418800    0.156800
C     -0.489400    0.712000    0.021600
S     -1.572700   -0.319900   -0.820400
C     -2.939900    0.694800   -0.523500
C     -4.248700    0.364600   -0.997300
S     -5.268200    1.475000   -1.862900
C     -6.559300    0.325600   -2.046800
C     -6.169300   -0.819800   -1.453300
C     -6.627400   -2.132100   -1.184900
C     -5.602600   -2.788800   -0.470700
N     -4.503200   -1.957200   -0.266800
C     -4.915500   -0.807900   -0.882400
C     -2.502300    1.773000    0.176600
C     -3.132600    2.926400    0.719600
C     -2.239400    3.766500    1.393300
S     -0.565100    3.241100    1.445100
C     -1.143000    1.814000    0.498300
C      1.386500   -0.684900    0.908900
N      0.631400   -1.576600    1.578300
S      1.665500   -2.654800    2.285600
N      3.122100   -2.052400    1.787300
C      2.875100   -0.962400    1.036500
