27

Si    -5.531700    2.193000    0.485100
C     -7.297600    1.572300    0.372400
C     -7.328300    0.256500    0.101200
C     -6.026600   -0.382000   -0.041800
C     -4.948500    0.418300    0.114100
C     -3.591500   -0.003100    0.015600
S     -2.244700    1.108900    0.230300
C     -1.006000   -0.074400   -0.022500
C      0.432100    0.222500    0.025200
C      0.924000    1.507700    0.284000
C      2.301100    1.762000    0.323600
C      3.196700    0.722300    0.102500
N      2.754500   -0.526700   -0.149400
C      1.411900   -0.745600   -0.182100
C      4.649200    0.889100    0.123500
S      5.454700    2.406200    0.426900
C      7.047900    1.734700    0.274900
C      6.908400    0.420900    0.007100
C      7.702000   -0.710300   -0.231800
C      6.788400   -1.750200   -0.436500
O      5.464200   -1.367900   -0.346200
C      5.614300   -0.039300   -0.075400
C     -1.636100   -1.245600   -0.256000
O     -1.054800   -2.453800   -0.508100
C     -2.176400   -3.238900   -0.658100
C     -3.380100   -2.546100   -0.505600
C     -3.013900   -1.210300   -0.236200
