22

Br     7.528200    0.045600   -0.385500
C      5.651000    0.238300   -0.278600
C      5.101100    1.201600    0.563400
C      3.712400    1.343300    0.640100
C      2.867000    0.517200   -0.113100
C      1.415200    0.719700   -0.024100
C      0.512700   -0.275700   -0.040500
N     -0.885700   -0.226300    0.043900
C     -1.599000   -1.402900    0.476000
C     -1.078400   -2.253500    1.468800
C     -1.775200   -3.392600    1.883500
C     -3.006400   -3.703800    1.312900
C     -3.542600   -2.876800    0.329800
C     -2.846000   -1.737300   -0.083300
C     -1.590200    0.972100   -0.325700
C     -2.620500    1.473900    0.488800
C     -3.316000    2.633300    0.136300
C     -2.995300    3.308200   -1.039200
C     -1.981500    2.824700   -1.863100
C     -1.285500    1.665600   -1.509700
C      3.437900   -0.436300   -0.967500
C      4.826400   -0.580000   -1.046900
