23

Br     8.056300    2.109700    2.827600
C      7.116900    1.043400    1.563200
C      7.686500    0.096300    0.744400
C      6.627400   -0.445700   -0.024800
C      5.473900    0.204500    0.372600
C      4.039700   -0.047700   -0.189200
N      3.782800   -0.946400   -1.151300
O      2.403000   -0.839100   -1.332600
C      1.970900    0.116000   -0.457800
C      0.521700    0.431600   -0.475700
O     -0.168000   -0.726100   -0.006600
C     -1.533700   -0.664100    0.033800
C     -2.153100   -1.841500    0.452500
C     -3.544100   -1.922100    0.540500
C     -4.343400   -0.819400    0.210500
C     -5.743800   -0.881100    0.292500
C     -6.526500    0.225800   -0.038200
C     -5.919500    1.406700   -0.454200
C     -4.528300    1.483300   -0.540900
C     -3.724200    0.378800   -0.212500
C     -2.319800    0.442200   -0.295600
N      2.939700    0.642500    0.258000
O      5.778300    1.116500    1.345200
