25

C     -8.057100    0.598000    2.646800
C     -6.875000    0.573100    2.438400
C     -5.468900    0.550600    2.182200
C     -4.505900    0.992100    3.088600
C     -3.215600    0.840100    2.516700
C     -3.309800    0.316200    1.274200
S     -4.827000   -0.035600    0.675100
C     -2.076100    0.193400    0.745400
S     -1.541400   -0.361700   -0.733200
C      0.074700   -0.008100   -0.189300
C      1.213800   -0.247600   -1.016400
C      2.174500   -0.446600   -1.709400
C      3.314200   -0.679700   -2.532600
C      3.663300    0.173400   -3.595600
C      4.796300   -0.048400   -4.413600
C      5.666400   -1.140600   -4.241100
C      5.354300   -2.036300   -3.187100
N      6.051500   -3.137100   -2.862300
S      5.272100   -3.820000   -1.564700
N      4.019800   -2.750500   -1.352800
C      4.150000   -1.805800   -2.302600
C      0.150300    0.519800    1.096400
C     -1.158300    0.633300    1.635600
N     -1.875900    1.027900    2.732600
C     -1.307000    1.612000    3.918700
