33

C     -7.078600    3.294500    0.919400
C     -6.868500    2.011400    0.598000
C     -5.547400    1.373200    0.525200
C     -4.495300    1.722300    1.378700
C     -3.260000    1.068500    1.294900
C     -3.046000    0.039400    0.363500
N     -1.771800   -0.632300    0.277500
C     -1.719100   -2.061900    0.077100
C     -0.766200   -2.639000   -0.781400
C     -0.715700   -4.022200   -0.974700
C     -1.616600   -4.852500   -0.312600
C     -2.567900   -4.302200    0.542800
C     -2.618900   -2.919000    0.735900
C     -0.548200    0.127500    0.376200
C     -0.421700    1.380500   -0.248100
C      0.768000    2.111400   -0.163400
C      1.858200    1.601900    0.546100
C      3.092200    2.383400    0.636700
C      4.247200    2.107900    0.014700
S      5.649200    3.100200    0.195600
C      6.624700    2.091000   -0.861900
S      8.232100    2.416800   -1.166600
N      5.857700    1.061800   -1.357500
C      6.355200   -0.000900   -2.231000
C      6.904400   -1.183800   -1.449800
O      7.363700   -2.201600   -1.946100
O      6.874400   -1.046000   -0.108300
C      4.550600    0.976500   -0.908500
O      3.764500    0.094700   -1.222200
C      1.743400    0.363800    1.183100
C      0.553500   -0.365800    1.095900
C     -4.111800   -0.316000   -0.478600
C     -5.346600    0.338500   -0.395100
