30

C     -3.428600    5.689100    0.980000
C     -3.427300    4.462900    0.441200
C     -2.219400    3.735400    0.024800
C     -1.121600    4.383300   -0.540600
C      0.015300    3.665900   -0.929500
C      0.052200    2.263900   -0.775700
C      1.051900    1.282600   -1.036200
C      2.365200    1.358600   -1.548600
C      3.113900    0.191800   -1.728100
C      2.573500   -1.052800   -1.412300
C      3.340000   -2.283800   -1.635300
C      4.495700   -2.664500   -1.065300
C      5.202900   -1.952500   -0.052500
C      4.759800   -1.140500    0.979400
C      5.816400   -0.622700    1.784200
C      7.046600   -1.064900    1.360600
S      6.923300   -2.100600    0.009700
C      1.266100   -1.147300   -0.914500
C      0.525100    0.035300   -0.694500
N     -0.773800    0.242700   -0.223300
C     -1.661100   -0.779900    0.227700
C     -1.195200   -1.796500    1.066900
C     -2.071900   -2.793600    1.503100
C     -3.412100   -2.791700    1.108500
O     -4.155000   -3.825800    1.606700
C     -5.528200   -3.867100    1.239800
C     -3.874300   -1.777600    0.269500
C     -3.003500   -0.772500   -0.169100
C     -1.068500    1.607700   -0.264600
C     -2.201000    2.338000    0.162700
