37

C     -8.667600    1.863400    1.849200
C     -7.815000    2.887800    1.717100
C     -6.351100    2.755300    1.685400
C     -5.576800    3.764600    2.256800
C     -4.179600    3.689200    2.254000
C     -3.534000    2.593700    1.643000
C     -2.165000    2.222400    1.508800
C     -0.959100    2.816800    1.937800
C      0.266700    2.223600    1.617600
C      0.317600    1.058100    0.854000
C      1.592700    0.413400    0.507600
C      2.671900    1.089600    0.083100
C      3.900500    0.435100   -0.230600
S      5.358900    1.215100    0.248900
C      6.358100   -0.032400   -0.359500
C      7.805100   -0.010100   -0.267400
C      8.692800   -0.773200   -1.009500
C     10.070100   -0.539000   -0.684200
C     11.221400   -1.222700   -1.338900
C     10.178100    0.413000    0.308200
S      8.662400    0.994000    0.832100
C      5.585000   -1.012100   -0.952100
C      4.172000   -0.751500   -0.902400
C      3.163400   -1.665700   -1.521900
C     -0.875400    0.447200    0.437000
C     -2.115000    1.025800    0.791800
N     -3.430200    0.658400    0.495900
C     -3.817700   -0.509500   -0.226500
C     -4.799800   -0.429600   -1.218300
C     -5.171200   -1.578100   -1.922500
C     -4.576000   -2.811400   -1.646200
O     -5.035200   -3.850000   -2.407900
C     -4.460000   -5.127900   -2.168100
C     -3.598300   -2.889500   -0.654200
C     -3.217300   -1.742700    0.053300
C     -4.306200    1.611900    1.020500
C     -5.718400    1.670000    1.058100
