22

C     -2.296100    4.235900   -1.318700
C     -1.478800    3.196800   -1.101500
C     -1.285500    2.538900    0.238100
C     -1.542000    1.052400    0.201000
C     -2.818700    0.518700    0.362000
C     -4.031200    1.378500    0.576500
N     -3.057000   -0.808100    0.343700
C     -2.007100   -1.616200    0.161000
S     -2.258300   -3.375000    0.141700
C     -4.045300   -3.451100    0.408000
N     -0.750200   -1.197900   -0.012600
C     -0.516000    0.124700   -0.002400
N      0.808200    0.593700   -0.200600
C      2.020200   -0.132100   -0.164100
C      3.146300    0.396900   -0.815600
C      4.388500   -0.246600   -0.757800
C      4.532100   -1.425400   -0.021100
C      5.825300   -2.144100    0.074800
O      6.035300   -3.159200    0.712400
O      6.803500   -1.555200   -0.636800
C      3.429500   -1.943700    0.662200
C      2.191200   -1.293100    0.599300
