21

C      1.079100    3.543800    0.341800
C      0.158100    2.601200    0.096700
C     -0.110400    1.406000    0.968500
N     -0.027100    0.180700    0.182600
C      1.185400   -0.489700    0.013200
S      2.741200    0.285500   -0.012900
C      3.700200   -0.992700   -0.881400
C      5.114500   -0.517400   -1.153900
N      5.790000    0.020900   -0.093300
O      5.677400   -0.662200   -2.235300
N      1.068200   -1.792900   -0.128100
N     -0.282600   -2.024400    0.025800
C     -1.006000   -0.825800    0.127200
C     -2.364600   -0.790000    0.116000
C     -3.158900   -2.023100    0.221500
C     -4.499700   -2.017800    0.283300
Br    -5.482300   -3.597400    0.449200
C     -5.235300   -0.777500    0.246700
C     -4.622200    0.402500    0.099800
C     -3.145700    0.492300   -0.045800
O     -2.664100    1.579900   -0.333200
