30

Si     1.618600   -0.322500   -2.081500
C      2.216600    0.675000   -0.467500
C      1.193100    0.915700    0.387700
C     -0.002000    0.375900   -0.132800
N     -1.243600    0.370700    0.419800
C     -2.136000   -0.269300   -0.442300
C     -1.366600   -0.719100   -1.536900
N     -1.857200   -1.442700   -2.561900
C     -3.162700   -1.744200   -2.450800
C     -4.021300   -1.352500   -1.422500
C     -5.354000   -1.769300   -1.443400
C     -6.231600   -1.394300   -0.431900
C     -5.817200   -0.562200    0.611200
C     -6.756400   -0.193500    1.589600
C     -6.414600    0.663300    2.629500
C     -5.129700    1.173500    2.691100
C     -4.185300    0.807800    1.724800
C     -4.477000   -0.091600    0.666200
C     -3.546300   -0.538400   -0.358700
C     -0.073300   -0.285200   -1.328100
C      3.622700    1.052900   -0.337200
C      4.004700    2.295800   -0.865200
C      5.323900    2.727000   -0.775100
C      6.274100    1.923800   -0.149400
C      5.920400    0.682100    0.400500
C      6.891000   -0.111800    1.034400
C      6.558400   -1.345900    1.591200
C      5.249000   -1.802600    1.523300
C      4.272600   -1.025600    0.896200
C      4.579300    0.229200    0.317600
