21

C      5.598200   -0.926400   -1.785800
C      4.358700   -1.079800   -1.300900
C      4.014300   -1.178400    0.157500
N      3.234700   -0.014900    0.534700
C      3.885400    1.138700    0.931100
N      3.315500    2.241800    1.294300
C      1.960000    2.206300    1.253600
S      1.034000    3.570100    1.689200
C     -0.431500    2.749900    1.374300
C     -0.231000    1.452000    0.940100
C     -1.372800    0.602000    0.631100
C     -1.603800   -0.562400    1.364200
C     -2.709200   -1.365300    1.076200
C     -3.604500   -1.018300    0.052900
C     -4.780500   -1.912500   -0.230000
C     -3.377400    0.155700   -0.692600
C     -4.301200    0.569200   -1.805300
C     -2.260500    0.955000   -0.393500
C      1.169400    1.139500    0.876300
C      1.842300   -0.086200    0.473300
O      1.239300   -1.093600    0.113500
