16

C      4.265000   -1.637200    0.184300
C      3.472100   -0.772000    0.830700
C      2.100500   -1.094600    1.329300
N      1.149300   -0.430400    0.473700
C     -0.196700   -0.647800    0.647000
O     -0.683600   -1.446700    1.434100
C     -1.091600    0.155800   -0.207400
C     -0.856800    0.205100   -1.588700
C     -1.748500    0.889900   -2.416600
Cl    -1.459000    0.948800   -4.110900
C     -2.877300    1.520500   -1.887000
C     -3.120100    1.474900   -0.512500
C     -2.220400    0.791000    0.317000
N     -2.444900    0.837200    1.749600
O     -3.554100    0.467900    2.157000
O     -1.543700    1.331900    2.440500
