16

C     -3.149900    0.303300    0.036900
C     -1.708700    0.613100    0.117800
C     -0.695100   -0.197600   -0.228000
C      0.695100    0.197600   -0.112100
C      1.708700   -0.613100   -0.457900
C      3.149900   -0.303300   -0.376900
C      3.659800    0.917200    0.087100
C      5.039100    1.146600    0.138400
C      5.929500    0.159100   -0.273500
C      5.442100   -1.058800   -0.737200
C      4.063700   -1.287000   -0.788100
C     -4.063700    1.286900    0.448200
C     -5.442100    1.058800    0.397400
C     -5.929500   -0.159100   -0.066500
C     -5.039100   -1.146500   -0.478700
C     -3.659800   -0.917100   -0.427500
