16

C      3.228000   -0.465200   -0.966000
C      1.870300   -0.271400   -0.559700
C      0.730600   -0.108600   -0.218700
C     -0.730600    0.100000    0.218600
C     -1.870300    0.262700    0.559700
C     -3.228000    0.456600    0.966000
C     -4.170700    0.934100    0.052300
C     -5.495900    1.123000    0.449700
C     -5.879500    0.835200    1.759500
C     -4.939700    0.358300    2.673300
C     -3.614100    0.168800    2.277400
C      4.151900    0.575000   -0.839300
C      5.477100    0.385000   -1.236200
C      5.879500   -0.843800   -1.759500
C      4.958500   -1.883600   -1.886800
C      3.632900   -1.695100   -1.490300
