36

C      9.376900   -0.192400    0.079200
C      7.905300   -0.162900    0.058700
C      7.172900    0.238500    1.185400
C      5.772800    0.265400    1.166400
C      5.056300   -0.105800    0.019300
C      3.584900   -0.076200   -0.000900
C      2.887600    0.622200   -0.997400
C      1.487500    0.650900   -1.016200
C      0.735800   -0.017900   -0.039100
C     -0.735700    0.012800   -0.058400
C     -1.453500   -0.356200   -1.205300
C     -2.853600   -0.328100   -1.223100
C     -3.584800    0.072700   -0.095400
C     -5.056200    0.103700   -0.114500
C     -5.761300    1.261800    0.244400
C     -7.161300    1.291700    0.225500
C     -7.905300    0.163900   -0.150700
C     -9.377000    0.195000   -0.169100
C    -10.071600    1.186900   -0.881600
C    -11.468800    1.216900   -0.900000
C    -12.196000    0.254800   -0.204000
C    -11.527700   -0.737100    0.509100
C    -10.130500   -0.766300    0.525400
C     -7.200300   -0.994500   -0.508500
C     -5.800200   -1.023700   -0.491900
C     -2.867000    0.442900    1.051100
C     -1.466900    0.412300    1.069700
C      1.433100   -0.716600    0.957100
C      2.833100   -0.745200    0.975900
C      5.788800   -0.505900   -1.107800
C      7.188800   -0.535200   -1.087900
C     10.118900    0.941200    0.451400
C     11.516100    0.914200    0.470700
C     12.195900   -0.249000    0.118900
C     11.480100   -1.384200   -0.252700
C     10.082900   -1.355100   -0.272600
