12

C      0.729800   -0.051800   -0.153100
C     -0.729800    0.051800   -0.316200
C     -1.455400    1.086800    0.297100
C     -2.841100    1.185500    0.143300
C     -3.525200    0.250100   -0.628700
C     -2.825500   -0.783500   -1.246000
C     -1.440000   -0.881400   -1.090100
C      1.570600    1.033600   -0.451200
C      2.956300    0.936100   -0.297200
C      3.525200   -0.250100    0.159300
C      2.710200   -1.338000    0.461200
C      1.324800   -1.239000    0.305500
