17

C      1.091500   -0.771800   -0.502600
C      2.429200   -0.266300   -0.204200
C      3.553800   -0.969100   -0.663900
C      4.845800   -0.510400   -0.394200
C      5.030100    0.659000    0.339800
C      3.925200    1.369500    0.804000
C      2.632800    0.909800    0.533800
N      0.739200   -1.850400   -1.177000
C     -0.632600   -1.826700   -1.141400
C     -1.078800   -0.726700   -0.441700
C     -2.377700   -0.177500   -0.076200
C     -3.560400   -0.824400   -0.466000
C     -4.811100   -0.303800   -0.119300
C     -4.897200    0.871400    0.622400
C     -3.734400    1.526800    1.018000
C     -2.484500    1.005800    0.670900
O      0.033900   -0.041200   -0.026400
