21

C     -1.427300    1.125700    0.651800
C     -1.664500   -0.312600    0.549900
C     -1.877700   -0.920800   -0.693300
C     -2.120100   -2.293700   -0.774200
C     -2.168900   -3.063500    0.387300
C     -1.986700   -2.461300    1.631400
C     -1.743400   -1.088900    1.713000
N     -2.314800    1.963000    1.168400
C     -1.789000    3.214200    1.035300
C     -0.547100    3.159700    0.456900
N     -0.275600    1.804700    0.240100
C      0.965700    1.370800   -0.286500
C      1.355800   -0.036600   -0.460400
C      1.428100   -0.601500   -1.741600
C      1.820800   -1.931200   -1.904800
C      2.152400   -2.702000   -0.791600
C      2.098200   -2.144000    0.484800
C      1.707800   -0.814000    0.650700
C      1.887800    2.304000   -0.614100
C      1.595100    3.713700   -0.432200
C      0.426600    4.124700    0.088500
