20

C     -2.202400   -0.124500   -0.092400
C     -3.681400   -0.130000   -0.111500
C     -4.355200    1.090500   -0.254700
C     -5.739800    1.102200   -0.274400
N     -6.496900   -0.006800   -0.162400
C     -5.840300   -1.175700   -0.025000
C     -4.458000   -1.288300    0.005700
N     -1.480300    0.980500   -0.204500
C     -0.160700    0.656500   -0.151300
S      1.287000    1.598500   -0.235800
C      2.202400    0.124500   -0.061400
C      3.681400    0.130000   -0.042400
C      4.458000    1.288300   -0.159600
C      5.840300    1.175700   -0.128900
N      6.496900    0.006800    0.008500
C      5.739800   -1.102200    0.120500
C      4.355200   -1.090500    0.100900
N      1.480300   -0.980500    0.050600
C      0.160700   -0.656500   -0.002600
S     -1.287000   -1.598500    0.081900
