15

C      0.494300   -0.792700    0.300000
N      1.053200    0.397100   -0.102100
C      1.354900   -1.753500    0.673400
C      2.800700   -1.422300    0.609300
C      3.272800   -0.213000    0.197000
C      2.340100    0.787300   -0.193000
C      2.205800    2.085800   -0.659400
N      0.847600    2.441800   -0.836300
C      0.193500    1.363600   -0.477400
C     -1.126700    0.785400   -0.320900
C     -0.960700   -0.567200    0.166000
C     -2.052300   -1.371200    0.411200
C     -3.318500   -0.823500    0.169600
C     -3.475800    0.498900   -0.306200
C     -2.372300    1.321100   -0.557400
