22

C     -3.607200    0.246700    0.021800
N     -4.780900   -0.051300    0.744500
C     -4.896800   -0.247500    2.162800
C     -6.407900   -0.079000    1.975900
C     -6.042900    0.629500    0.667600
C     -3.672600    0.877200   -1.223100
C     -2.508700    1.160400   -1.938100
C     -1.255900    0.806700   -1.415000
C     -0.066700    1.074900   -2.101100
C      1.162200    0.702600   -1.546200
C      2.377300    0.956200   -2.200000
C      3.582900    0.568500   -1.615000
C      3.596900   -0.081700   -0.378600
N      4.813100   -0.466900    0.222500
C      6.051300   -0.766000   -0.440200
C      6.500400   -1.411300    0.874600
C      5.005700   -1.505300    1.196200
C      2.369900   -0.312200    0.261900
C      1.152500    0.060700   -0.295800
N      0.012400   -0.200400    0.369800
C     -1.166200    0.160600   -0.169900
C     -2.343700   -0.109300    0.517700
