31

C      6.686500    0.743000   -1.173000
N      5.649700    1.407600   -1.792800
C      4.438100    0.991300   -1.278900
C      4.703000    0.054300   -0.308200
C      3.799600   -0.663000    0.486000
C      4.483300   -1.561300    1.345700
C      5.915500   -1.706800    1.387400
C      6.813500   -0.973700    0.578200
C      6.122500   -0.104100   -0.255200
C      2.356500   -0.483300    0.441400
C      1.637300    0.693000    0.581100
C      0.263400    0.414000    0.461100
O     -0.857400    1.216500    0.516500
C     -1.926800    0.370500    0.328600
C     -1.441300   -0.897800    0.167400
C     -2.308300   -1.976900   -0.043900
C     -2.110500   -3.305700   -0.231400
O     -3.348900   -3.878900   -0.388500
C     -4.288800   -2.879000   -0.293300
C     -3.681500   -1.662100   -0.076400
C     -4.298400   -0.390700    0.077700
C     -5.722900   -0.147200    0.031400
C     -6.300200    1.130000    0.188500
C     -5.345500    2.128400    0.393000
C     -5.701700    3.443100    0.568600
S     -4.321900    4.438300    0.797400
C     -3.245200    3.103900    0.661100
C     -3.913600    1.920400    0.445100
C     -3.308000    0.661100    0.292100
C     -0.059600   -0.894000    0.248100
S      1.353700   -1.876700    0.185300
