33

C     -7.385600   -0.125300   -2.556900
N     -6.288600   -0.658400   -3.200100
C     -5.153400   -0.484200   -2.435800
C     -5.529600    0.160600   -1.281500
C     -4.717900    0.561500   -0.211800
C     -5.499700    1.239000    0.765000
C     -6.919300    1.465000    0.665100
C     -7.715100    1.044400   -0.423600
C     -6.936200    0.393900   -1.370500
C     -3.283800    0.328200   -0.105000
C     -2.756700   -0.970000   -0.093400
C     -1.378400   -1.189300    0.021400
C     -0.478900   -0.117300    0.129100
C     -1.010200    1.180800    0.123200
C     -2.388900    1.399700    0.009900
C      0.961800   -0.356300    0.268100
C      1.496700   -1.221900    1.255700
C      2.877400   -1.477000    1.421100
C      3.862200   -0.889700    0.606700
C      5.283700   -1.130100    0.783300
S      5.958900   -2.625400    0.258600
C      7.544900   -2.174200    0.737500
C      7.559800   -0.921500    1.295000
N      8.693700   -0.333000    1.767600
C      8.416800    0.903400    2.268200
C      7.146800    1.494100    2.307900
N      5.999100    0.921400    1.851400
C      6.250600   -0.314600    1.328400
C      3.409600   -0.010600   -0.415900
N      4.167700    0.640200   -1.317500
S      3.137400    1.519000   -2.267900
N      1.677400    1.109700   -1.605400
C      1.925600    0.263700   -0.588400
