29

C     -3.814600   -1.719600   -0.883200
N     -3.162400   -2.862000   -1.327800
C     -1.796500   -2.722000   -1.190600
C     -1.636600   -1.482400   -0.656300
C     -2.862900   -0.826000   -0.437500
C     -3.068600    0.465900    0.092700
C     -1.851500    1.144000    0.423300
C     -0.594600    0.518900    0.223300
N      0.712300    0.926200    0.455000
C      1.573500   -0.091300    0.070200
C      0.825100   -1.124700   -0.394300
O      1.603600   -2.159800   -0.790800
C      2.881600   -1.734500   -0.555400
C      4.012700   -2.503600   -0.824700
C      5.257500   -1.935400   -0.531200
C      5.371800   -0.645300    0.012100
C      6.625500   -0.086300    0.302300
C      6.729900    1.198100    0.843100
C      5.583800    1.946300    1.103300
C      4.324500    1.415500    0.824500
C      4.206800    0.121100    0.278900
C      2.941900   -0.449400   -0.016700
C     -0.495200   -0.753800   -0.298800
C     -4.384300    1.062800    0.289400
C     -4.752600    2.251900   -0.350400
C     -6.014700    2.802900   -0.135800
C     -6.880000    2.147300    0.723200
N     -6.570800    1.003700    1.367900
C     -5.335100    0.494100    1.137200
