30

C      1.901000   -1.785900   -1.429200
N      0.735900   -2.187700   -2.029500
C     -0.308200   -1.407300   -1.590000
C      0.161800   -0.568500   -0.601900
C      1.592300   -0.752100   -0.575700
C      2.516000    0.029800    0.122000
C      1.837700    1.118900    0.713000
C      0.397800    1.329800    0.664900
C     -0.128300    2.561100    1.160000
N      0.586200    3.568300    1.700600
S     -0.471400    4.793900    2.032100
N     -1.884900    4.116200    1.510300
C     -1.592800    2.876000    1.069700
C     -2.533600    1.912100    0.576900
C     -3.892500    2.270400    0.497300
C     -4.840400    1.335600    0.115800
C     -4.471500    0.006900   -0.074900
C     -5.478100   -0.943400   -0.318400
C     -5.183300   -2.300800   -0.382200
C     -3.881600   -2.720300   -0.169800
C     -2.873300   -1.775400    0.049500
C     -3.104900   -0.378900    0.031900
C     -2.063400    0.619500    0.212900
C     -0.592300    0.426800    0.100800
C      3.961300   -0.173000    0.152700
C      4.858400    0.874500   -0.060300
C      6.227800    0.625300    0.006200
C      6.671400   -0.659200    0.288000
C      5.722100   -1.644600    0.490200
N      4.389500   -1.431000    0.428500
