31

C     -4.251800    1.066100    1.929500
N     -3.446400    1.463400    2.965400
C     -2.124600    1.290300    2.625000
C     -2.068900    0.836300    1.325500
C     -3.437900    0.654400    0.899200
C     -3.850500    0.106700   -0.320100
C     -2.698600   -0.294700   -1.051400
C     -1.322900   -0.132800   -0.647600
C     -0.338800   -0.601300   -1.505900
C      1.018700   -0.516600   -1.179100
C      1.507300    0.055800    0.013700
C      0.527100    0.681300    0.834800
C      1.002800    1.529800    1.843500
C      2.359700    1.739600    2.060100
C      3.316400    1.040200    1.332900
C      4.659900    1.314100    1.601900
C      5.673800    0.639700    0.939000
C      5.370400   -0.392400    0.058400
C      6.430300   -1.114800   -0.518100
C      6.191500   -2.221700   -1.323600
C      4.887800   -2.633800   -1.531600
C      3.830000   -1.906900   -0.972500
C      4.013600   -0.722100   -0.210600
C      2.933200    0.095800    0.349400
C     -0.895900    0.495000    0.566400
C     -5.221100   -0.080500   -0.796000
N     -6.194900    0.688200   -0.299600
C     -7.402400    0.469100   -0.813500
N     -7.706700   -0.422600   -1.751200
C     -6.661900   -1.124800   -2.177000
N     -5.407200   -1.001200   -1.751700
