30

C     -1.796200    2.093300   -0.688000
N     -0.637800    2.757600   -1.011900
C      0.428400    1.889600   -0.962400
C     -0.023700    0.676700   -0.493500
C     -1.458400    0.783100   -0.439100
C     -2.344100   -0.266500   -0.191300
C     -1.618400   -1.477400   -0.101300
C     -0.180500   -1.603500   -0.190500
C      0.376600   -2.867500   -0.231100
N      1.688100   -3.133300   -0.397900
C      2.554800   -2.114200   -0.398500
C      3.879200   -2.460700   -0.583100
C      4.900800   -1.519700   -0.539500
C      4.616400   -0.203800   -0.195500
C      5.675100    0.705700   -0.026900
C      5.442400    1.995000    0.439200
C      4.151900    2.371600    0.770800
C      3.095500    1.473800    0.582900
C      3.270900    0.183800    0.028000
C      2.191400   -0.761700   -0.221900
C      0.747200   -0.515100   -0.284600
C     -3.788500   -0.166900   -0.137000
C     -4.592700    0.380900   -1.147800
N     -5.961600    0.508800   -1.172600
C     -6.717700    0.065600   -0.128000
C     -6.055900   -0.527100    0.964400
N     -6.630900   -1.024300    2.071500
S     -5.396900   -1.593300    3.023800
N     -4.085200   -1.242700    2.072900
C     -4.552500   -0.649300    0.958000
