32

C     -2.249100    0.862900    1.782900
N     -1.357900    1.633200    2.499700
C     -0.086000    1.487400    1.983700
C     -0.190600    0.559700    0.988200
C     -1.544700    0.210900    0.793000
C     -2.104800   -0.585700   -0.205200
C     -1.133200   -1.012400   -1.132500
C      0.251400   -0.687700   -0.994600
S      1.503000   -1.055100   -2.123900
C      2.756900   -0.352600   -1.143800
C      2.186600    0.087300    0.054400
C      3.129300    0.497600    1.057500
C      2.999600    0.748500    2.389500
O      4.232000    1.074600    2.891600
C      5.130700    0.965700    1.865500
C      4.492300    0.565400    0.713900
C      5.109200    0.251200   -0.508900
C      6.477600    0.340400   -0.834000
C      6.866400   -0.073100   -2.094700
N      6.016200   -0.560600   -3.023800
C      4.703300   -0.639400   -2.684700
C      4.173000   -0.247900   -1.448400
C      0.786500    0.016700    0.079200
C     -3.513500   -0.891000   -0.324400
C     -4.087500   -2.121500    0.087500
C     -5.479200   -2.442700   -0.030200
C     -6.445200   -1.571000   -0.575600
C     -5.880400   -0.363900   -0.986300
C     -6.624400    0.641000   -1.553600
S     -5.641700    1.992900   -1.954800
C     -4.217300    1.227200   -1.369500
C     -4.481000   -0.028800   -0.872200
