29

C     -2.590700   -1.777400   -1.432900
N     -3.889600   -2.075000   -1.790600
C     -4.766700   -1.268000   -1.095100
C     -4.022400   -0.435800   -0.286100
C     -2.672400   -0.725400   -0.567400
C     -1.654100   -0.005400    0.151800
C     -2.122000    0.814900    1.182100
S     -0.755800    1.384700    2.098000
C      0.401000    0.629500    1.065300
C      1.823300    0.660900    1.218200
C      2.704200    0.089700    0.274200
C      4.156900    0.105900    0.398500
C      4.859200    1.319700    0.463800
C      6.250700    1.338300    0.588600
C      6.960900    0.142000    0.654700
C      6.281400   -1.072300    0.597700
C      4.890000   -1.089500    0.472200
C      2.002500   -0.421600   -0.816000
C      2.553000   -0.914800   -1.978200
O      1.569200   -1.222700   -2.878200
C      0.369300   -0.921600   -2.289200
C      0.608700   -0.487800   -1.021100
C     -0.258600   -0.002100    0.016100
C     -3.527400    1.082700    1.421200
C     -3.962000    1.960500    2.423700
N     -5.261700    2.253300    2.688400
C     -6.196400    1.644800    1.927100
C     -5.904800    0.751700    0.912700
C     -4.548400    0.467500    0.656400
