30

C     -0.911300   -3.758300    0.709300
N     -2.102800   -4.430100    0.876600
C     -3.164200   -3.550700    0.760900
C     -2.654100   -2.290900    0.515100
C     -1.267000   -2.460600    0.490800
C     -0.472800   -1.307500    0.252900
C      0.925200   -1.195600    0.177700
C      2.045600   -2.036600    0.284100
C      3.338800   -1.499400    0.136900
C      3.568500   -0.135300   -0.116500
C      2.432400    0.696900   -0.220700
C      1.146700    0.151900   -0.072300
N     -0.083800    0.776200   -0.135500
C     -1.140300   -0.096700    0.062300
C     -2.598900    0.088300    0.086700
C     -3.384000   -1.095000    0.329700
C     -4.787200   -1.054800    0.377900
C     -5.451600    0.146500    0.188900
C     -4.750600    1.330300   -0.050900
C     -5.502200    2.504500   -0.231600
C     -4.888300    3.726000   -0.474800
C     -3.509300    3.782800   -0.539600
C     -2.750600    2.618300   -0.360900
C     -3.323800    1.342600   -0.109500
C      4.934200    0.442100   -0.273800
C      6.113500   -0.301500   -0.187000
C      7.347600    0.331100   -0.349100
C      7.388900    1.694300   -0.595000
C      6.187800    2.370700   -0.668800
N      4.981400    1.781100   -0.515600
