33

C     -0.177500   -3.918000    1.017200
N     -1.452900   -4.377000    1.238900
C     -2.368700   -3.356800    1.022100
C     -1.701900   -2.228900    0.577700
C     -0.353800   -2.617800    0.656700
C      0.624300   -1.653900    0.392000
C      2.011300   -1.741400    0.364900
C      2.416200   -0.452000    0.076300
O      1.319700    0.363600   -0.060700
C      0.176000   -0.377500    0.150500
C     -1.202700    0.070400    0.114800
C     -1.559700    1.460700   -0.034000
C     -0.609300    2.524000   -0.061800
C     -0.953800    3.869100   -0.185500
C     -2.280600    4.213600   -0.280200
C     -3.244000    3.207600   -0.247700
C     -2.934700    1.821100   -0.125200
C     -3.960800    0.810400   -0.115300
C     -5.344400    1.125400   -0.257800
C     -6.350400    0.163100   -0.325000
C     -6.005200   -1.166800   -0.277900
C     -4.664400   -1.512200   -0.120200
C     -3.617300   -0.561700    0.021500
C     -2.238500   -0.931600    0.236100
C      3.689000    0.202800   -0.118800
C      3.886500    1.340500   -0.947100
C      5.157900    1.985900   -1.157900
C      6.369000    1.569100   -0.561200
C      6.150200    0.465100    0.250900
C      7.085700   -0.195300    1.000100
O      6.482100   -1.214000    1.683800
C      5.150900   -1.195900    1.363400
C      4.896500   -0.187700    0.467900
