31

Si    -1.675800    0.384700    0.564500
C     -3.097400   -0.766900    0.094400
C     -2.631300   -1.968300   -0.298200
C     -1.181400   -2.105100   -0.301600
C     -0.478400   -1.025500    0.109900
C      0.961200   -0.827900    0.234500
N      1.446000    0.450400    0.352300
C      2.788100    0.704900    0.466900
C      3.827700   -0.223100    0.489600
C      5.224000    0.145000    0.597000
S      6.220700   -0.448300    1.901700
C      7.628100    0.419800    1.378100
C      7.288900    1.115300    0.278400
O      8.098300    1.938100   -0.441000
C      7.205300    2.347300   -1.415200
C      5.922100    1.798900   -1.285900
C      5.991000    0.976100   -0.147100
C      3.392900   -1.564400    0.361400
N      4.168900   -2.663300    0.319400
S      3.163100   -3.967100    0.176900
N      1.691500   -3.214400    0.137100
C      1.914600   -1.889500    0.234000
C     -4.485500   -0.391200    0.232400
C     -5.380800   -0.940000    1.184900
C     -6.765700   -0.558300    1.308900
C     -7.404900    0.402700    0.490900
C     -6.511100    0.911500   -0.441500
C     -6.773700    1.842600   -1.409600
O     -5.641000    2.066600   -2.144100
C     -4.652300    1.267600   -1.634300
C     -5.137500    0.545900   -0.573300
