33

C     -3.182900    2.206600   -2.319900
N     -1.998900    2.607400   -2.883000
C     -0.952700    1.992500   -2.243300
C     -1.459200    1.175600   -1.254700
C     -2.885200    1.320900   -1.306200
C     -3.831900    0.665100   -0.494400
C     -5.272900    0.876300   -0.638500
C     -6.246900    0.191300    0.097200
C     -5.630000   -0.731100    0.916300
C     -6.298000   -1.644700    1.685600
O     -5.397300   -2.472500    2.279600
C     -4.151400   -2.066800    1.888600
C     -4.219100   -0.949100    1.089200
C     -3.155200   -0.225700    0.443400
C     -1.643000   -0.284400    0.574300
C     -0.926500   -0.938000    1.645000
N     -1.462100   -1.482700    2.750000
S     -0.253000   -2.111600    3.672400
N      1.049000   -1.708700    2.746200
C      0.580400   -1.030000    1.680700
C      1.392800   -0.442500    0.669800
C      2.806600   -0.559800    0.699700
C      3.595000    0.040900   -0.278700
C      2.878500    0.751800   -1.230100
N      1.520900    0.874100   -1.271700
C      0.741000    0.286800   -0.337700
C     -0.709700    0.379500   -0.340600
C      5.065800   -0.042200   -0.319000
C      5.796100   -1.058200    0.300200
C      7.188000   -1.055900    0.211300
C      7.824300   -0.044600   -0.493200
C      7.037600    0.924200   -1.086200
N      5.687500    0.943400   -1.017300
