30

C     -3.192200   -2.628100   -1.881600
N     -2.031400   -3.263500   -2.226100
C     -0.956700   -2.578600   -1.706200
C     -1.421900   -1.481200   -1.013000
C     -2.853300   -1.522900   -1.131800
C     -3.772800   -0.607900   -0.587700
C     -5.218000   -0.747000   -0.771500
C     -6.167200    0.137100   -0.249700
C     -5.523100    1.135600    0.449300
C     -6.169900    2.160800    1.083400
O     -5.252800    2.969500    1.674700
C     -4.016100    2.448300    1.410300
C     -4.106400    1.303000    0.650000
C     -3.064000    0.436500    0.145700
C     -1.560500    0.486200    0.274400
C     -0.919600    1.510800    0.990400
C      0.465400    1.618200    1.149600
C      1.331700    0.688700    0.592500
C      2.718500    0.845100    0.784100
C      3.617300   -0.066100    0.241100
N      3.145500   -1.108500   -0.475800
C      1.802000   -1.235100   -0.645000
C      0.804000   -0.381600   -0.146400
C     -0.658200   -0.489500   -0.310800
C      5.099200    0.024700    0.395600
C      5.744600    1.041600    1.106900
C      7.138100    1.049800    1.201300
C      7.870000    0.046000    0.586600
C      7.174700   -0.928800   -0.100200
N      5.829100   -0.957100   -0.204800
