30

C     -3.113800    3.088400   -1.356500
N     -1.932400    3.589600   -1.836200
C     -0.899900    2.738500   -1.511700
C     -1.406000    1.706500   -0.749300
C     -2.825600    1.905500   -0.714400
C     -3.774400    1.046800   -0.126100
C     -5.168500    1.304300   -0.051800
C     -6.007500    0.406300    0.590300
C     -5.461400   -0.726800    1.171700
C     -4.082100   -0.976700    1.082800
C     -3.171800   -0.133300    0.397400
C     -1.695400   -0.386300    0.256700
C     -0.992900   -1.604100    0.524700
C     -1.532700   -2.855400    0.737000
N     -0.505600   -3.749300    0.937900
C      0.698600   -3.113400    0.785300
C      0.428800   -1.797100    0.488200
C      1.397100   -0.818000    0.195900
C      2.800200   -1.010000    0.225700
C      3.639600    0.059100   -0.056600
N      3.116900    1.279300   -0.335600
C      1.760400    1.417700   -0.358300
C      0.799000    0.417600   -0.148400
C     -0.692500    0.591300   -0.212400
C      5.120000   -0.072700   -0.048900
N      5.638700   -1.278000    0.237800
C      6.968500   -1.329600    0.227900
N      7.792500   -0.320000   -0.034000
C      7.170300    0.823900   -0.304300
N      5.855900    1.012100   -0.328600
