33

C     -6.695200    1.306800   -1.016700
N     -5.817500    2.145600   -1.655900
C     -4.517600    1.777400   -1.370400
C     -4.545900    0.726500   -0.478800
C     -5.937300    0.407700   -0.312300
C     -6.471700   -0.645700    0.402800
C     -5.436900   -1.429800    0.931500
C     -4.016600   -1.138800    0.772200
C     -3.064300   -2.030900    1.344400
N     -3.370900   -3.131700    2.060400
S     -1.952600   -3.803200    2.556900
N     -0.884800   -2.756100    1.873900
C     -1.573800   -1.823500    1.190600
C     -1.012500   -0.703400    0.462500
C     -1.992400    0.255600    0.043300
C     -1.481500    1.499000   -0.365500
C     -0.116100    1.794900   -0.447400
C      0.858300    0.843400   -0.183000
C      2.234900    1.246200   -0.339400
C      3.372200    0.421900   -0.160800
C      4.746500    0.888000   -0.307900
C      5.758000    0.556700    0.593400
C      7.041000    1.063800    0.397500
C      7.284200    1.896200   -0.686100
C      6.226800    2.194600   -1.526500
N      4.972800    1.720500   -1.357500
C      2.951100   -0.879900    0.113300
C      3.754400   -1.995800    0.176700
N      2.933000   -3.080700    0.353500
C      1.618700   -2.676000    0.363800
C      1.583300   -1.302900    0.289200
C      0.420400   -0.460000    0.226100
C     -3.440500   -0.001100    0.089400
