33

C     -6.758500   -1.120900    1.281000
N     -5.890900   -1.815800    2.084800
C     -4.584900   -1.546500    1.719600
C     -4.601700   -0.640600    0.682300
C     -5.988700   -0.402200    0.404500
C     -6.505800    0.404900   -0.587800
C     -5.458300    0.971500   -1.335000
C     -4.049700    0.759500   -1.096100
C     -3.156000    1.395500   -1.947300
C     -1.772100    1.248600   -1.807800
C     -1.176500    0.467600   -0.798200
C     -2.053800   -0.162900    0.115400
C     -1.421500   -0.846400    1.156900
N     -0.086900   -0.986800    1.355400
C      0.750300   -0.436900    0.486100
C      2.126500   -0.648600    0.776300
C      3.232000   -0.184400    0.022900
C      4.617400   -0.442800    0.352500
C      5.161500   -1.727400    0.499300
N      6.452700   -2.071100    0.821300
C      7.391000   -1.108600    1.052700
C      6.995000    0.239100    0.955100
N      7.772200    1.316400    1.151600
S      6.799900    2.642100    0.926400
N      5.358900    1.909400    0.559800
C      5.570000    0.580600    0.597900
C      2.766000    0.504900   -1.091800
C      3.518800    1.053100   -2.098300
O      2.699400    1.602200   -3.035500
C      1.412600    1.402000   -2.623000
C      1.386700    0.739200   -1.419400
C      0.261900    0.302200   -0.639800
C     -3.502100   -0.056900   -0.043400
