29

C      6.039100   -0.093700   -1.019400
N      5.194100    0.289400   -2.033800
C      3.882100    0.218500   -1.608000
C      3.883500   -0.120600   -0.275600
C      5.246400   -0.392300    0.057300
C      5.703700   -0.922500    1.245700
C      4.604300   -1.240300    2.072700
C      3.229200   -1.007700    1.782100
N      2.368100   -1.469700    2.692700
C      1.036800   -1.323800    2.481900
C      0.442900   -0.647500    1.425200
C     -1.001500   -0.549500    1.367200
C     -1.735500    0.171300    0.396700
C     -3.173700    0.276200    0.361000
C     -3.972900    0.844400    1.390100
C     -5.411900    0.941300    1.350200
C     -6.212600    0.474900    0.282500
C     -5.413900   -0.085100   -0.704000
C     -5.832200   -0.651900   -1.877600
O     -4.746200   -1.105200   -2.576200
C     -3.629900   -0.822400   -1.835500
C     -3.991100   -0.183200   -0.676400
C     -0.852500    0.833300   -0.451900
C     -1.171500    1.750900   -1.420600
O     -0.029200    2.275600   -1.947100
C      1.023000    1.686500   -1.305800
C      0.578400    0.735000   -0.422200
C      1.343600   -0.071900    0.474300
C      2.769600   -0.345200    0.595200
