14

C     -1.409600   -0.535100    0.028400
C     -1.681600    0.879200   -0.084600
C     -0.273900    1.545000   -0.123200
N      0.391400    2.666600   -0.204400
C      1.744000    2.247500   -0.158900
C      1.857600    0.868100   -0.050200
N      0.564200    0.487700   -0.032700
C     -0.010700   -0.769700    0.060000
C      0.834600   -1.804200    0.148700
C      2.285500   -1.484500    0.137500
C      2.774500   -0.216000    0.043100
O     -2.968300    1.285100   -0.128400
C     -3.581700    0.051700   -0.038000
C     -2.706100   -1.044500    0.055900
