18

C     -2.489800    0.316400    0.706700
C     -3.564100   -0.270500    0.072300
N     -4.662600    0.172000    0.777400
C     -4.263100    1.001600    1.807200
C     -2.886000    1.108400    1.782200
C     -3.425300   -1.113100   -1.038200
C     -2.127500   -1.367400   -1.522700
C     -1.068100   -0.757400   -0.856400
C     -1.175600    0.072700    0.234100
N      0.032400    0.517600    0.668200
C      0.869200   -0.060100   -0.181400
C      2.327200    0.032600   -0.234200
C      3.005200    0.820800    0.708700
C      4.398100    0.929400    0.684100
C      5.132100    0.249900   -0.285400
C      4.475500   -0.537000   -1.229200
C      3.081900   -0.645100   -1.203900
O      0.267000   -0.852000   -1.138100
