18

C     -2.428800    0.509700   -0.626300
C     -3.635700    0.922300   -1.215000
C     -4.857300    0.680600   -0.584700
C     -4.888100    0.023800    0.641500
C     -3.697400   -0.392200    1.239200
C     -2.460100   -0.156300    0.617200
C     -1.253100   -0.568700    1.205700
C     -0.015600   -0.332500    0.583100
C      0.015600    0.332500   -0.658500
C      1.253100    0.568700   -1.281100
C      2.460100    0.156300   -0.692600
C      3.697400    0.392200   -1.314600
C      4.888100   -0.023800   -0.716900
C      4.857300   -0.680600    0.509300
C      3.635700   -0.922300    1.139700
C      2.428800   -0.509700    0.550900
C      1.191400   -0.745400    1.172500
C     -1.191400    0.745400   -1.247900
