30

Si    -1.817300    1.208900   -0.491100
C     -3.280000    0.435300    0.416600
C     -2.886600   -0.600300    1.186200
C     -1.460400   -0.896400    1.142500
C     -0.734100   -0.088500    0.343900
C      0.651300   -0.199700    0.129800
S      1.789000    1.023300    0.557200
C      3.148200    0.112100    0.005300
C      4.491600    0.659100    0.115900
C      4.862400    1.912400   -0.423500
C      6.167700    2.448900   -0.322500
C      7.220400    1.783500    0.326400
C      6.912300    0.522300    0.890500
N      7.775000   -0.266200    1.549300
S      6.921400   -1.610300    2.015200
N      5.425900   -1.262100    1.391400
C      5.519900   -0.062400    0.788700
C      2.678000   -1.064800   -0.479100
C      3.292800   -2.196900   -1.077800
C      2.372100   -3.186200   -1.438100
S      0.684600   -2.839900   -1.098700
C      1.297500   -1.272000   -0.429200
C     -4.604200    0.890100    0.289600
S     -5.123800    2.519400    0.611200
C     -6.790200    2.182700    0.249700
C     -6.875700    0.883200   -0.096600
C     -7.820200   -0.087800   -0.509000
C     -7.113500   -1.293500   -0.706100
N     -5.754200   -1.142200   -0.438600
C     -5.694300    0.175300   -0.078000
