24

C     -3.579500    0.368400   -0.233900
C     -4.041700    1.580700   -0.688000
C     -5.412000    1.816000   -0.815200
C     -6.283900    0.805800   -0.475200
C     -5.808900   -0.400800   -0.022800
C     -4.448300   -0.640300    0.105700
C     -4.003500   -1.878900    0.568800
C     -2.662000   -2.122100    0.698100
C     -1.776600   -1.129300    0.364800
C     -2.209500    0.117000   -0.100800
C     -1.271900    1.164000   -0.452100
C      0.065300    1.041200   -0.366700
B      0.634000   -0.307100    0.140000
C      2.161100   -0.579200    0.285400
N      3.101400    0.427000   -0.050900
C      3.856800    0.326800   -1.310100
C      5.307500    0.246100   -0.952900
O      5.600200    0.731100    0.312500
C      4.877800    1.875200    0.624900
C      3.391000    1.574800    0.757500
C      2.469800   -1.787000    0.733200
C      1.482100   -2.792000    1.067800
C      0.158600   -2.609700    0.961200
N     -0.383400   -1.380400    0.498500
