18

C     -1.765100    0.504000   -0.062600
C     -2.540700    1.638300   -0.097500
C     -3.943500    1.577500   -0.143500
C     -4.587300    0.368900   -0.155000
C     -3.834400   -0.780300   -0.120700
C     -2.445100   -0.704100   -0.075300
C     -1.674500   -1.850400   -0.040400
C     -0.296400   -1.795200    0.004800
C      0.333700   -0.575700    0.015700
C     -0.390900    0.617100   -0.018000
C      0.266800    1.913200   -0.006700
C      1.604600    2.057000    0.036400
B      2.482700    0.790900    0.075800
C      4.025200    0.753300    0.127200
C      4.638600   -0.440600    0.157200
C      3.881300   -1.681000    0.142300
C      2.547400   -1.731500    0.098500
N      1.743200   -0.556800    0.062300
