21

C     -2.508700    0.029300   -0.007800
C     -3.760300   -0.509800   -0.218900
C     -4.897700    0.257900    0.060000
C     -4.813000    1.529800    0.536800
C     -3.550000    2.044200    0.738800
C     -2.386200    1.324100    0.477900
N     -1.109000    1.926600    0.713000
B      0.138700    1.140200    0.427900
C     -0.036500   -0.307700   -0.115500
C     -1.316200   -0.800400   -0.309500
C     -1.449000   -2.084200   -0.791100
C     -0.312100   -2.854800   -1.071100
C      0.941800   -2.311600   -0.858400
C      1.119900   -1.034200   -0.378800
C      2.456100   -0.452000   -0.150900
C      3.557200   -1.222300   -0.431100
C      4.840200   -0.703200   -0.227100
C      5.054300    0.571200    0.251600
C      3.926400    1.314500    0.521400
C      2.634200    0.838200    0.333500
N      1.536900    1.691000    0.644500
