22

C      0.995800   -1.665100   -0.253200
C      1.651900   -2.892400   -0.431800
C      3.036600   -2.943000   -0.579000
C      3.783000   -1.766900   -0.549400
C      3.153600   -0.526100   -0.372300
C      1.746700   -0.470900   -0.222400
C      1.093900    0.775600   -0.042400
C     -0.316500    0.832900    0.108000
C     -1.063300   -0.376600    0.075400
C     -2.526400   -0.405300    0.223400
C     -3.361500   -0.315900   -0.894400
C     -4.733100   -0.349500   -0.704000
N     -5.320600   -0.466300    0.505600
C     -4.498700   -0.555100    1.572600
C     -3.116600   -0.530700    1.484700
C     -0.394000   -1.601400   -0.104400
C     -0.908700    2.104200    0.284000
C     -0.145200    3.270700    0.310900
C      1.235200    3.199900    0.162400
C      1.867600    1.963700   -0.014600
C      3.258300    1.890200   -0.164400
C      3.893800    0.660800   -0.341100
