22

C     -3.334900   -0.603600    0.256000
C     -4.546200    0.050000   -0.014800
C     -4.555400    1.358400   -0.494200
C     -3.353300    2.029700   -0.708900
C     -2.127100    1.400900   -0.446900
C     -2.111100    0.074300    0.039400
C     -0.875200   -0.573400    0.308700
C     -0.884500   -1.902800    0.795300
C     -2.104800   -2.558500    1.003800
C     -3.315000   -1.917200    0.737600
C      0.325400   -2.549000    1.063300
C      1.537100   -1.894400    0.855000
C      1.575100   -0.575400    0.373000
C      2.890500    0.052300    0.177200
C      3.562200   -0.057500   -1.044100
C      4.799500    0.550400   -1.179500
N      5.405000    1.248300   -0.195400
C      4.743400    1.340600    0.977500
C      3.503600    0.768200    1.210000
C      0.354900    0.101900    0.093200
C      0.299300    1.426100   -0.393200
C     -0.915500    2.063200   -0.658000
