30

Si    -1.829600   -1.455300   -0.597800
C     -3.092700   -0.145400   -0.057500
C     -2.437500    0.954500    0.369100
C     -0.980500    0.899100    0.324000
C     -0.436700   -0.248000   -0.140300
C      0.959500   -0.537500   -0.277300
S      2.147200    0.642900    0.171100
C      3.514600   -0.322500   -0.232900
C      4.866700    0.173300   -0.058100
S      6.310900   -0.734500   -0.441100
C      7.396900    0.526400    0.041400
C      6.646900    1.562000    0.464000
C      6.810800    2.857100    0.974800
C      5.509500    3.326200    1.181600
O      4.521000    2.423900    0.839700
C      5.284700    1.376000    0.412100
C      3.076200   -1.544400   -0.709900
N      3.911100   -2.546800   -1.120200
C      3.230500   -3.639400   -1.542100
C      1.842400   -3.753100   -1.565000
N      0.977600   -2.786900   -1.168600
C      1.627700   -1.664300   -0.734300
C     -4.508000   -0.290700   -0.092700
S     -5.293700   -1.766600   -0.664900
C     -6.899100   -1.186400   -0.409600
C     -6.808700    0.061000    0.083100
N     -7.852300    0.872300    0.421000
C     -7.180400    2.008000    0.860200
C     -5.781400    1.845300    0.773500
C     -5.528700    0.542200    0.253400
