30

C      2.497200    1.055300    1.089700
C      3.331100    0.393300    0.186700
N      2.523000   -0.351000   -0.668900
C      1.211100   -0.167100   -0.319300
C      1.200700    0.668900    0.725600
O     -0.062700    0.906600    1.138000
C     -0.876600    0.176200    0.300200
C     -0.123000   -0.523200   -0.642200
C     -0.770100   -1.335300   -1.597200
C      0.004700   -2.039800   -2.547900
C     -0.603300   -2.848100   -3.501700
C     -1.983800   -2.961000   -3.516600
C     -2.754500   -2.265400   -2.577300
C     -2.183700   -1.426500   -1.581900
C     -2.938000   -0.692500   -0.596300
C     -4.344200   -0.752300   -0.542500
C     -5.095200   -0.051300    0.401700
C     -4.483400    0.756900    1.355000
C     -5.291500    1.440000    2.281900
C     -4.734200    2.260500    3.255800
C     -3.359500    2.404900    3.310300
C     -2.550300    1.727700    2.390700
C     -3.073700    0.877400    1.376700
C     -2.301900    0.137800    0.382500
C      4.802200    0.416600    0.081400
C      5.579300    1.178300    0.961600
C      6.970300    1.190900    0.850200
C      7.557500    0.434900   -0.147700
N      6.857400   -0.315600   -1.020900
C      5.506800   -0.304800   -0.884000
