23

C     -0.597200   -1.429400    0.555000
C     -1.741400   -0.429500    0.116900
C     -1.209400    0.739000   -0.351500
C      0.180400    0.593600   -0.259200
N      1.226800    1.390300   -0.562300
C      2.347900    0.650500   -0.231400
C      1.967900   -0.577500    0.264800
N      3.091800   -1.292300    0.585500
C      4.193700   -0.516100    0.292300
C      5.560500   -0.759700    0.425100
C      6.405300    0.275600    0.019300
C      5.860800    1.456700   -0.479600
N      4.541700    1.720700   -0.619600
C      3.753800    0.702800   -0.219600
C      0.573700   -0.608600    0.244700
C     -3.141600   -0.669600    0.183200
S     -3.813200   -2.165500    0.785000
C     -5.458800   -1.667700    0.541200
C     -5.433500   -0.421600    0.027400
C     -6.320400    0.575000   -0.404700
C     -5.499100    1.629000   -0.820700
O     -4.146100    1.381100   -0.686900
C     -4.184100    0.119900   -0.167000
