24

C      2.530100   -1.345800   -0.816500
C      3.346400   -0.174000   -0.209400
C      2.553400    0.786400    0.339400
C      1.246200    0.330600    0.137900
N      0.020200    0.826800    0.450100
C     -0.884500   -0.096300   -0.018900
C     -0.182500   -1.141800   -0.610600
Si    -1.425000   -2.368100   -1.232200
C     -2.805900   -1.199700   -0.550000
C     -4.219400   -1.517600   -0.672800
C     -5.149800   -0.675200   -0.183100
C     -4.726000    0.553600    0.468600
C     -5.565700    1.465800    0.992800
Si    -4.616800    2.890800    1.732400
C     -3.024200    2.044200    1.217300
C     -3.273200    0.875600    0.592200
C     -2.306800   -0.071600    0.044500
C      1.159600   -0.874500   -0.512800
C      4.802200   -0.181900   -0.264700
N      5.385800   -1.228400   -0.853000
C      6.715300   -1.177600   -0.871900
N      7.470700   -0.204300   -0.370400
C      6.774400    0.781600    0.189000
N      5.449200    0.854900    0.275100
