26

C      2.147300   -0.751500   -0.193100
C      3.140700    0.348300    0.261500
C      2.509900    1.498300    0.621000
C      1.151800    1.229900    0.432700
N      0.022700    1.937200    0.602400
C     -1.052200    1.119900    0.241200
C     -0.532500   -0.130400   -0.161200
C      0.866500   -0.019100   -0.025100
C     -1.433500   -1.146800   -0.580100
C     -0.910600   -2.396900   -0.982200
C     -1.753200   -3.422400   -1.400200
C     -3.123600   -3.214600   -1.422400
C     -3.652100   -1.980900   -1.026500
C     -2.834800   -0.905600   -0.592700
C     -3.340900    0.371900   -0.179800
C     -4.717400    0.712200   -0.156000
C     -5.174600    1.970400    0.253500
C     -4.270900    2.942200    0.657000
C     -2.909000    2.658100    0.651800
C     -2.442900    1.388800    0.239000
C      4.574800    0.092600    0.271300
N      5.378000    1.081200    0.673700
C      6.673000    0.778500    0.657300
N      7.201800   -0.384500    0.286200
C      6.301500   -1.287400   -0.092900
N      4.982400   -1.115300   -0.124100
