23

Si    -0.811000    1.545600    1.162200
C      0.594400    0.679900    0.203800
C      0.097400    0.007400   -0.855900
C     -1.349800    0.075700   -1.021000
C     -2.002600    0.808800   -0.097100
C     -3.393700    1.011100   -0.064000
S     -4.164400    2.571100   -0.093400
C     -5.770200    1.907400   -0.057700
C     -5.653700    0.565400   -0.020000
C     -6.444000   -0.608300    0.029400
C     -5.554700   -1.703900    0.057900
N     -4.225200   -1.287400    0.028900
C     -4.368000    0.071300   -0.022500
C      1.955000    0.785600    0.566900
C      2.695900    1.738800    1.238800
C      4.033900    1.278900    1.316300
C      4.098400    0.044500    0.698000
N      2.825500   -0.235500    0.251800
C      5.209300   -0.847300    0.506200
C      5.237500   -2.078400   -0.128300
N      6.459500   -2.725300   -0.164500
C      7.353500   -1.979200    0.443400
S      6.793200   -0.492200    1.080100
