21

C     -1.428600    0.506100   -0.860800
C     -2.156400   -0.368600    0.206400
C     -1.281400   -0.933600    1.083900
C     -0.020200   -0.492600    0.671100
N      1.236900   -0.690900    1.112200
C      2.089000    0.024800    0.275100
C      3.475700    0.174800    0.268800
Si     4.734500   -0.545600    1.407800
C      6.059200    0.340300    0.409400
C      5.553500    1.053600   -0.614600
C      4.085200    0.980000   -0.721800
C      3.324700    1.622800   -1.687300
C      1.929500    1.474900   -1.685100
C      1.299900    0.675600   -0.705200
C     -0.025600    0.322900   -0.419500
C     -3.615600   -0.488800    0.162800
C     -4.335000   -1.250000    1.081000
C     -5.723600   -1.313400    0.971300
C     -6.358700   -0.618300   -0.048300
C     -5.574000    0.114600   -0.919600
N     -4.227600    0.192800   -0.835600
