23

C     -0.296400    0.332300    1.181500
C     -1.295700   -0.118300    0.061700
C     -0.654000   -0.591800   -1.044700
C      0.710600   -0.473400   -0.753300
N      1.848500   -0.761800   -1.429600
C      2.879900   -0.408400   -0.573700
C      4.256800   -0.350700   -0.420500
Si     5.877200   -0.690200   -1.216100
C      6.722700   -0.029000    0.379800
C      5.816100    0.360300    1.303300
C      4.479300    0.174600    0.842500
O      3.297700    0.445900    1.481600
C      2.334700    0.079600    0.588900
C      0.955900    0.043000    0.486700
C     -2.731200   -0.041500    0.275400
C     -3.384900   -0.331600    1.502100
C     -4.810000   -0.248800    1.709500
C     -5.737400    0.144700    0.719300
C     -5.076100    0.442800   -0.463300
C     -5.644600    0.884700   -1.627200
O     -4.665300    1.101800   -2.556500
C     -3.466100    0.793700   -1.972200
C     -3.666500    0.360200   -0.685300
