20

C     -0.284900    1.388400   -0.162900
C      0.893900    0.414600    0.185700
C      0.435400   -0.840900    0.455800
C     -0.950600   -0.772000    0.289500
N     -1.958300   -1.657700    0.407200
C     -3.140300   -0.983300    0.109900
C     -4.458600   -1.454800    0.085800
C     -5.468400   -0.546300   -0.248200
C     -5.174200    0.783300   -0.546200
C     -3.854600    1.249400   -0.519800
C     -2.819200    0.358100   -0.188600
C     -1.427300    0.454200   -0.061800
C      2.269800    0.733800    0.272800
S      2.872200    2.128300    1.117600
C      4.535200    1.765600    0.764400
C      4.555000    0.648600    0.010500
C      5.458400   -0.212400   -0.658200
C      4.686000   -1.209400   -1.291300
N      3.323700   -1.028500   -1.059800
C      3.328400    0.086800   -0.268900
