22

C      0.617200    0.278800   -0.399900
C      1.452600   -0.249500    0.775200
C      0.637500   -0.906000    1.633500
C     -0.697200   -0.862300    1.125300
C     -0.750600   -0.188000   -0.045500
C     -2.073400   -0.161300   -0.521000
N     -2.569500    0.403000   -1.647500
C     -3.934300    0.145000   -1.649400
C     -5.045700    0.425000   -2.489400
C     -6.192600   -0.112300   -1.942900
S     -5.954400   -0.939000   -0.451200
C     -4.267500   -0.577300   -0.522100
C     -3.082300   -0.769500    0.191800
Si    -2.337500   -1.525100    1.726200
C      2.857500   -0.098000    0.972500
S      3.725300   -0.744400    2.362100
C      5.265600   -0.152100    1.848300
C      5.081300    0.491900    0.685000
O      6.043400    1.106400   -0.055000
C      5.268700    1.570100   -1.101300
C      3.909300    1.249500   -0.994000
C      3.793800    0.525200    0.209300
