28

C     -1.045900    0.670900    0.273300
C     -1.952100   -0.556100    0.300800
C     -1.244800   -1.696700    0.135700
C      0.142000   -1.331200   -0.009300
C      0.316900    0.058600    0.064600
C      1.599200    0.629000   -0.053300
N      2.042600    1.929500   -0.018400
C      3.416500    1.992200   -0.182300
C      4.259700    3.110800   -0.208800
C      5.627600    2.891100   -0.391300
C      6.132900    1.602500   -0.541500
C      5.280200    0.492300   -0.513300
C      3.896500    0.683500   -0.330800
C      2.753300   -0.125100   -0.246300
C      2.600400   -1.552100   -0.325400
C      3.505800   -2.554000   -0.505000
N      2.759200   -3.718400   -0.493400
C      1.415100   -3.433700   -0.309300
C      1.294700   -2.068800   -0.201000
C     -3.405900   -0.501400    0.483700
C     -4.255200   -1.649700    0.513500
C     -5.685800   -1.630600    0.691400
C     -6.444200   -0.457500    0.861800
C     -5.614600    0.651900    0.831900
C     -6.018400    1.952000    0.966900
O     -4.931500    2.771500    0.886300
C     -3.831000    1.979700    0.698500
C     -4.189300    0.653600    0.656000
