32

C     -1.392300    0.173700   -0.017500
C     -2.373100   -0.589500    0.854200
C     -1.755100   -1.468000    1.662100
C     -0.352500   -1.344900    1.382100
C     -0.038400   -0.386100    0.389700
C      1.307200   -0.049400   -0.097100
C      1.606400    0.935500   -1.113900
C      0.647700    1.732200   -1.802000
C      0.974000    2.677700   -2.782500
C      2.292200    2.878700   -3.130700
C      3.275200    2.132100   -2.495300
C      2.957800    1.170400   -1.499700
C      4.052700    0.460700   -0.913700
C      5.477700    0.555600   -1.167900
C      6.232900   -0.293300   -0.405000
S      5.263500   -1.214700    0.623400
C      3.778400   -0.496600    0.072700
C      2.442500   -0.761400    0.486600
C      2.082700   -1.719200    1.483100
C      2.846100   -2.571700    2.248700
O      2.059500   -3.319500    3.083200
C      0.767500   -2.951800    2.860900
C      0.742500   -1.983700    1.897200
C     -3.818700   -0.386900    0.814000
N     -4.612500   -1.135900    1.650700
C     -5.974300   -0.997700    1.665300
C     -6.740000   -0.135800    0.890500
C     -5.975600    0.655800    0.014400
N     -6.474800    1.565200   -0.837600
S     -5.181100    2.222500   -1.638800
N     -3.930000    1.386100   -0.943900
C     -4.470500    0.543500   -0.042000
