27

C      0.788300   -0.623600   -0.122000
C      1.536900    0.696900   -0.174000
C      0.634000    1.693800   -0.094600
C     -0.707400    1.159900    0.010300
C     -0.640500   -0.186500   -0.003800
C     -1.831900   -1.040700    0.086600
C     -1.746200   -2.463300    0.070600
N     -0.639600   -3.224200   -0.023100
S     -1.128300   -4.806800    0.006000
N     -2.770000   -4.621400    0.139000
C     -3.002300   -3.300300    0.166100
C     -4.277200   -2.700400    0.272400
C     -4.309200   -1.294300    0.284000
C     -3.147700   -0.479700    0.196000
C     -3.235500    1.010900    0.212700
C     -4.362900    1.748000    0.308100
Si    -3.984000    3.584100    0.289700
C     -2.177200    3.153800    0.141600
C     -1.990600    1.819200    0.117900
C      2.943300    0.894900   -0.286800
S      3.713300    2.473400   -0.337700
C      5.319000    1.837500   -0.473100
C      5.228400    0.494900   -0.475600
N      6.259500   -0.393500   -0.566100
C      5.576000   -1.606300   -0.519500
C      4.182500   -1.412100   -0.404600
C      3.952100   -0.009300   -0.375500
