28

C      2.074500    0.498400    0.131900
C      3.475600   -0.123600   -0.001000
C      3.399200   -1.437800   -0.305700
C      2.003900   -1.771900   -0.394000
C      1.162100   -0.669800   -0.145700
C     -0.274900   -0.703700   -0.165000
C     -1.050500    0.439800    0.093300
C     -2.457700    0.403000    0.073600
C     -3.131500   -0.814200   -0.213400
C     -4.611700   -0.888200   -0.242300
C     -5.381000    0.186500    0.000200
C     -4.769500    1.461300    0.299900
C     -5.459200    2.589200    0.555300
Si    -4.304400    4.016700    0.894700
C     -2.864700    2.843600    0.634800
C     -3.296200    1.598100    0.343300
C     -2.392700   -1.971700   -0.475300
C     -0.982700   -1.922900   -0.452800
C     -0.104700   -3.015000   -0.698500
C     -0.404400   -4.317900   -1.002400
O      0.752700   -5.035700   -1.159300
C      1.803800   -4.181800   -0.953300
C      1.320800   -2.935300   -0.668700
C      4.719500    0.570900    0.169700
C      4.893200    1.912400    0.484000
C      6.259500    2.304300    0.584700
C      7.109800    1.252800    0.344900
S      6.263000   -0.187200    0.003100
