28

C      1.436600    0.898700   -0.175900
C      2.770400    0.142100   -0.233300
C      2.593500   -1.191300   -0.130400
C      1.178400   -1.415300   -0.001200
C      0.434800   -0.219300   -0.020700
C     -0.993400   -0.136300    0.089200
C     -1.668000    1.091200    0.062000
C     -3.078600    1.156000    0.171700
C     -3.793800    2.401600    0.146500
N     -3.266500    3.634100    0.021600
S     -4.535900    4.701900    0.053000
N     -5.816100    3.660300    0.226100
C     -5.296300    2.424000    0.266500
C     -6.035000    1.228300    0.406000
C     -5.288400    0.035300    0.425200
C     -3.871600   -0.019900    0.314200
C     -3.209400   -1.251800    0.342800
C     -1.799000   -1.320100    0.233200
C     -1.018500   -2.512800    0.249600
C     -1.447500   -3.812500    0.370900
N     -0.327100   -4.620500    0.334200
C      0.813100   -3.857200    0.191100
C      0.407100   -2.550100    0.136800
C      4.015300    0.860500   -0.381400
C      4.179800    2.199400   -0.481300
C      5.548500    2.673600   -0.623800
C      6.491600    1.716200   -0.639300
Si     5.726400    0.013800   -0.467000
