30

Si     2.409100    0.639900    0.767600
C      1.138300   -0.707300    0.383200
C      1.753600   -1.883500    0.135800
C      3.209200   -1.859400    0.209100
C      3.744000   -0.660200    0.510800
C      5.117700   -0.411000    0.671100
S      6.056100   -1.077000    1.962100
C      7.506700   -0.311400    1.438200
C      7.225000    0.392300    0.319900
C      8.011100    1.195800   -0.539900
C      7.268700    1.724900   -1.601600
S      5.564100    1.295500   -1.652600
C      5.908800    0.359900   -0.142500
C     -0.265700   -0.527500    0.395000
S     -1.033200    0.958000   -0.151800
C     -2.635500    0.388700    0.129000
C     -3.808800    1.182800   -0.136500
C     -4.160900    2.335600    0.605500
C     -5.339100    3.112100    0.359700
C     -6.281600    2.818000   -0.649500
C     -5.925700    1.685300   -1.382500
C     -6.687500    1.212200   -2.421900
S     -5.976900   -0.183600   -3.129000
C     -4.642700   -0.147900   -2.043800
C     -4.741500    0.892200   -1.147700
C     -2.560600   -0.861400    0.627100
N     -3.593200   -1.672300    1.005800
C     -2.907600   -2.808100    1.427800
C     -1.511600   -2.648700    1.298300
C     -1.280900   -1.352200    0.762600
