25

C      1.754000    1.157100   -0.174000
C      2.735900    0.022800   -0.079300
C      2.076000   -1.134700    0.103700
C      0.651500   -0.883200    0.145300
C      0.443000    0.440000   -0.013800
C     -0.895100    1.051000   -0.022800
C     -1.067200    2.421500   -0.189900
N     -2.245600    3.076000   -0.212800
C     -3.335700    2.291200   -0.055400
C     -4.691200    2.693700   -0.036700
C     -5.449900    1.563100    0.148000
N     -4.591800    0.496900    0.240300
C     -3.282100    0.904600    0.120000
C     -2.046300    0.235600    0.141700
C     -1.867500   -1.231800    0.320900
C     -2.806500   -2.187100    0.492400
Si    -2.042200   -3.896200    0.672300
C     -0.373400   -3.108100    0.484400
C     -0.474400   -1.774600    0.318300
C      4.172900    0.231300   -0.180700
N      4.594500    1.484200   -0.363400
C      5.916400    1.611200   -0.448300
N      6.805800    0.625200   -0.368100
C      6.262600   -0.575500   -0.185800
N      4.963200   -0.840600   -0.084200
