32

C      1.379600   -0.784700    0.717100
C      2.344900   -0.546300   -0.434600
C      1.748800   -0.134300   -1.569900
C      0.340000   -0.061200   -1.270600
C      0.074500   -0.431800    0.056200
C     -1.238200   -0.406400    0.538500
O     -1.627900   -0.691100    1.811800
C     -2.991600   -0.538600    1.873500
C     -3.760000   -0.683000    3.068900
C     -5.093200   -0.515600    2.993200
C     -5.724200   -0.250600    1.707000
C     -7.057900   -0.166300    1.538900
Si    -7.490200    0.034200   -0.264400
C     -5.664800   -0.036300   -0.661600
C     -4.916100   -0.125700    0.452700
C     -3.492300   -0.218200    0.596600
C     -2.359700   -0.059200   -0.207400
C     -2.105000    0.377300   -1.557200
C     -2.899500    0.913100   -2.526100
N     -2.065900    1.152400   -3.604900
C     -0.763000    0.810400   -3.294500
C     -0.760300    0.338000   -2.004300
C      3.783400   -0.757800   -0.270400
C      4.306700   -1.979300   -0.720500
C      5.663000   -2.258200   -0.589200
C      6.510500   -1.317200   -0.009400
C      6.018000   -0.082800    0.441800
C      6.888100    0.857700    1.018700
C      6.418400    2.092000    1.465500
C      5.071400    2.404400    1.339100
C      4.193400    1.480200    0.768900
C      4.638200    0.216800    0.312100
