30

C      1.113700   -0.544300    1.342000
C      2.306000   -0.021400    0.532900
C      1.906500    0.666000   -0.559700
C      0.462200    0.644700   -0.581600
C     -0.043300   -0.058300    0.515900
C     -1.421800   -0.203000    0.673600
O     -2.040300   -0.905300    1.671100
C     -3.390600   -0.775500    1.477800
C     -4.373500   -1.377400    2.288800
C     -5.733900   -1.138700    2.029500
C     -5.953000   -0.242500    0.983100
C     -7.226300    0.165200    0.654200
S     -7.215400    1.354200   -0.593600
C     -5.493300    1.335200   -0.698100
C     -4.989500    0.394000    0.149500
C     -3.618600    0.049200    0.381900
C     -2.384400    0.335700   -0.180100
C     -1.892300    0.990200   -1.370400
C     -2.597900    1.409700   -2.458600
S     -1.529900    2.123800   -3.610700
C     -0.137600    1.765000   -2.659100
C     -0.472000    1.122800   -1.489100
C      3.693300   -0.173500    0.831800
S      4.222900   -0.000700    2.487200
C      5.880400   -0.262700    2.105200
C      6.003700   -0.493900    0.772100
Si     7.421800   -0.881300   -0.402800
C      6.142000   -0.980900   -1.816300
C      4.890400   -0.739100   -1.368100
C      4.786000   -0.459600    0.037500
