28

C      1.437000    0.293900    1.027600
C      2.519400   -0.124100    0.035500
C      1.988400   -0.581800   -1.117900
C      0.551600   -0.495500   -0.994100
C      0.173500    0.016800    0.245600
C     -1.181500    0.189400    0.602200
S     -1.778000    0.737800    2.120700
C     -3.422600    0.695100    1.605900
C     -4.538200    1.050400    2.404800
C     -5.831300    1.061700    1.878600
C     -5.939400    0.750200    0.514200
N     -7.088600    0.776200   -0.187600
S     -6.694400    0.417700   -1.768200
N     -5.049000    0.190300   -1.619500
C     -4.811800    0.367600   -0.331200
C     -3.498600    0.285900    0.278600
C     -2.246400   -0.097400   -0.261800
C     -1.880400   -0.731000   -1.538400
C     -2.689600   -1.305500   -2.476700
S     -1.760800   -1.908700   -3.798000
C     -0.279500   -1.465500   -3.047800
C     -0.485500   -0.869400   -1.824100
C      3.955100   -0.022600    0.365000
C      4.949800   -0.270300   -0.595300
C      6.308800   -0.167200   -0.278300
C      6.701100    0.188300    1.007600
C      5.734600    0.442100    1.974800
C      4.376100    0.338700    1.655300
