25

C     -1.532100   -0.572300    1.058500
C     -0.792800    0.100100   -0.096100
C     -1.640400    0.665900   -0.979600
C     -2.980900    0.439700   -0.489900
C     -2.967800   -0.281100    0.714200
C     -4.127000   -0.638000    1.417000
C     -5.407700   -0.283000    0.940300
C     -5.477300    0.450400   -0.282200
N     -6.596800    0.872700   -0.889400
S     -6.108700    1.669600   -2.266100
N     -4.456600    1.514500   -2.162000
C     -4.215200    0.830100   -1.033000
C      0.673700    0.088000   -0.169600
C      1.452600   -0.964800    0.371200
C      2.873000   -1.024700    0.341000
C      3.553700   -2.119500    0.895800
C      4.951200   -2.194300    0.873500
C      5.703400   -1.174800    0.295000
C      5.061900   -0.073600   -0.265100
C      3.652800    0.006800   -0.245900
C      2.930200    1.114600   -0.803100
N      3.470600    2.195800   -1.395900
S      2.214100    3.175000   -1.842700
N      0.927300    2.284800   -1.310600
C      1.414600    1.156800   -0.761100
