23

Si    -1.323200   -0.625300    1.327800
C      0.037600    0.368300    0.470000
C     -0.491900    1.216100   -0.436600
C     -1.944900    1.180300   -0.552400
C     -2.569000    0.311300    0.269000
C     -3.966100    0.096200    0.294600
S     -4.863400    0.067200    1.785000
C     -6.375700   -0.193300    1.008200
C     -6.209400   -0.255600   -0.343400
S     -7.402600   -0.509500   -1.667800
C     -6.010800   -0.394000   -2.735800
C     -4.772500   -0.181200   -2.118600
C     -4.873000   -0.089900   -0.703100
C      1.416600    0.218900    0.765200
C      2.041600    0.045300    1.989500
C      3.459100   -0.082300    1.886300
C      3.902600   -0.006500    0.582600
S      2.594900    0.219400   -0.496000
C      5.258500   -0.093800    0.105900
C      6.428000   -0.271900    0.832000
C      7.503800   -0.292300   -0.089000
C      6.940300   -0.126100   -1.328500
O      5.594700   -0.006000   -1.224300
