24

C     -0.781700    0.529900   -0.025000
C     -1.509800   -0.789100   -0.286400
C     -0.614500   -1.794100   -0.414900
C      0.729900   -1.265200   -0.259000
C      1.948800   -1.919200   -0.311700
C      3.126000   -1.169900   -0.126100
C      4.389300   -1.752000   -0.164300
N      5.564600   -1.113100    0.002300
C      5.484000    0.225100    0.227600
C      6.613300    1.072500    0.427800
C      6.259200    2.384100    0.635200
S      4.567900    2.601900    0.590100
C      4.274800    0.924300    0.288500
C      3.047200    0.226200    0.109100
C      1.791600    0.873300    0.158800
C      0.653400    0.107100   -0.027800
C     -2.928000   -0.994700   -0.390900
S     -3.624500   -2.573300   -0.705000
C     -5.245800   -2.006100   -0.682100
C     -5.280200   -0.662500   -0.445300
C     -6.399600    0.223600   -0.341900
C     -6.083700    1.513100   -0.097800
Si    -4.199800    1.744000    0.033900
C     -3.975900   -0.112100   -0.284800
