32

C      1.757500   -0.299800   -0.607000
C      2.800300    0.188900    0.375300
C      2.257300    0.585800    1.538400
C      0.819600    0.424000    1.423700
C     -0.155100    0.682300    2.356500
C     -1.494300    0.440800    2.010700
C     -1.926300   -0.040500    0.743000
C     -0.858900   -0.339200   -0.181400
C      0.488900   -0.090100    0.169200
C     -1.344500   -0.896600   -1.393400
C     -0.604300   -1.302400   -2.481300
N     -1.475900   -1.794100   -3.425000
C     -2.764400   -1.711300   -2.958400
C     -2.716100   -1.156000   -1.698700
C     -3.820200   -0.879300   -0.866400
C     -5.191200   -1.182100   -1.261600
C     -6.314100   -0.888300   -0.479700
C     -5.924300   -0.248700    0.680700
C     -6.815600    0.217800    1.612100
N     -6.076900    0.841200    2.583500
C     -4.733200    0.780500    2.269900
C     -4.582400    0.061300    1.103400
C     -3.372800   -0.258700    0.385900
C      4.217600    0.156900    0.056200
C      4.885700   -0.998000   -0.420400
C      6.282100   -1.046100   -0.737100
C      7.154500    0.055700   -0.620300
C      6.492700    1.197000   -0.167700
C      7.138600    2.396300    0.004200
S      6.053500    3.615800    0.538100
C      4.717100    2.532800    0.534500
C      5.085400    1.260500    0.159500
