25

C     -1.291100    0.419600   -0.199700
C     -2.355200   -0.617200    0.150900
C     -1.778400   -1.751000    0.600800
C     -0.336000   -1.580000    0.591300
C      0.652800   -2.463500    0.962400
C      1.986100   -2.046800    0.856100
C      2.356100   -0.751300    0.381400
C      1.309700    0.124100    0.011100
C      1.653600    1.390300   -0.453600
N      2.916100    1.846600   -0.577500
C      3.915700    1.027100   -0.230100
C      5.210400    1.510400   -0.363100
C      6.325700    0.742000   -0.030600
C      6.147500   -0.545300    0.448400
C      4.855600   -1.053600    0.590800
C      3.709000   -0.286100    0.257500
C     -0.018400   -0.306200    0.122800
C     -3.770500   -0.453900    0.035200
S     -4.939000   -1.702000    0.461400
C     -6.317600   -0.745800    0.048000
C     -5.867900    0.443100   -0.383300
O     -6.632400    1.485900   -0.805800
C     -5.636300    2.394000   -1.110300
C     -4.338400    1.919000   -0.881500
C     -4.504700    0.607400   -0.393100
