21

C     -1.235500   -0.494100   -0.527200
C     -2.575400   -0.040400    0.051700
C     -2.385300    0.834000    1.060800
C     -0.956300    1.036600    1.241700
C     -0.299600    1.841300    2.152000
C      1.097900    1.865100    2.126300
C      1.832900    1.092300    1.199700
C      3.238100    1.131900    1.191900
C      3.948800    0.366200    0.274500
C      5.417000    0.326100    0.171600
C      5.873600   -0.490600   -0.795200
Si     4.497000   -1.350200   -1.742000
C      3.263800   -0.451000   -0.649400
C      1.873800   -0.506700   -0.660900
C      1.145300    0.265600    0.264900
C     -0.251400    0.262400    0.314600
C     -3.859700   -0.463800   -0.391400
C     -4.241200   -1.338200   -1.394300
C     -5.655100   -1.401000   -1.412600
C     -6.109900   -0.564400   -0.421400
N     -5.018700   -0.002200    0.190800
