31

C      1.498100   -0.199000    0.136400
C      2.571800    0.749100   -0.393300
C      2.004400    1.814200   -0.996100
C      0.563700    1.669500   -0.920700
C     -0.446600    2.471700   -1.377000
N     -1.756200    2.162200   -1.208000
C     -2.140200    1.028500   -0.570500
C     -1.116200    0.152700   -0.072700
C      0.234600    0.496300   -0.260900
C     -1.645700   -0.991200    0.569800
C     -0.970600   -2.030900    1.158500
O     -1.858500   -2.936200    1.665000
C     -3.112300   -2.470200    1.397400
C     -3.031700   -1.276300    0.724900
C     -4.089900   -0.471000    0.266700
C     -5.472100   -0.794500    0.443600
C     -6.496100    0.029200   -0.024800
C     -6.092200    1.208400   -0.687700
N     -6.943400    2.111000   -1.199800
S     -6.015000    3.305900   -1.869500
N     -4.502700    2.735200   -1.541900
C     -4.626200    1.566900   -0.883900
C     -3.560100    0.713200   -0.398600
C      3.985000    0.571100   -0.286800
S      5.169000    1.706000   -0.920300
C      6.537400    0.784400   -0.395200
C      6.075400   -0.317600    0.223100
N      6.822600   -1.310600    0.785600
C      5.827100   -2.161400    1.260000
C      4.538400   -1.662300    0.973100
C      4.705000   -0.431000    0.280700
