24

C      1.583100   -0.220300   -0.038000
C      2.579300    0.511900   -0.928400
C      1.955800    1.329900   -1.797400
C      0.528500    1.223200   -1.565700
C     -0.530800    1.845600   -2.178900
N     -1.822300    1.623300   -1.824900
C     -2.099200    0.754000   -0.824700
C     -3.451500    0.528500   -0.462300
Si    -4.979400    1.325700   -1.235700
C     -6.066000    0.334100   -0.033000
C     -5.357200   -0.453800    0.796000
C     -3.922600   -0.351500    0.565200
C     -2.888600   -1.002600    1.214900
C     -2.970800   -1.907500    2.241300
N     -1.680600   -2.275200    2.553900
C     -0.782800   -1.615100    1.737500
C     -1.508700   -0.812800    0.890100
C     -1.039000    0.064500   -0.134900
C      0.280300    0.324100   -0.534700
C      4.005100    0.345300   -0.824100
C      4.959900    1.280500   -1.023100
C      6.333100    0.842300   -0.822500
C      6.480400   -0.442800   -0.454700
Si     4.820300   -1.302700   -0.316200
