27

Si    -2.719900    1.219100    3.809100
C     -3.526500    0.803700    2.170700
C     -2.605000    0.496700    1.232000
C     -2.901300    0.125600   -0.180900
C     -1.869100   -0.149500   -1.025400
C     -0.549400   -0.059500   -0.504300
N      0.573300   -0.306300   -1.257200
C      1.657700   -0.128600   -0.432700
C      1.202900    0.223600    0.808300
O      2.232900    0.421600    1.699000
C      3.376800    0.179600    0.970000
C      4.714900    0.245700    1.415300
C      5.771100   -0.041000    0.506400
C      5.332900   -0.369500   -0.781300
C      6.132200   -0.688900   -1.852600
N      5.301700   -0.946300   -2.935900
C      3.972600   -0.797400   -2.577800
C      4.014500   -0.446700   -1.265000
C      3.029300   -0.151700   -0.314000
C     -0.191400    0.275400    0.791300
C     -1.197500    0.573500    1.736600
C     -1.056300    0.923400    3.026900
C     -4.224800   -0.002500   -0.716600
C     -5.168100   -0.984200   -0.462500
C     -6.388900   -0.776800   -1.167300
C     -6.349500    0.363000   -1.936600
S     -4.851800    1.175800   -1.806000
