20

C      0.070400    0.432400   -0.097800
C     -0.766300   -0.756200    0.376600
C     -0.032500   -1.891400    0.340100
C      1.303600   -1.581500   -0.140600
C      2.399800   -2.392100   -0.349400
N      3.595700   -1.953400   -0.807900
C      3.665100   -0.619100   -1.062600
C      4.757200    0.140700   -1.543900
C      4.341700    1.452300   -1.639800
N      3.031900    1.512600   -1.232000
C      2.597000    0.261500   -0.875000
C      1.384600   -0.217900   -0.404200
C     -2.133200   -0.727700    0.808200
S     -2.997000   -2.151000    1.332200
C     -4.455500   -1.307700    1.651000
C     -4.305000    0.016500    1.372100
S     -5.476100    1.378100    1.508700
C     -4.156100    2.369200    0.914300
C     -2.953800    1.704100    0.646200
C     -3.019200    0.305100    0.911100
