29

C      1.109400   -0.356000   -0.155700
C      2.171700   -1.432500   -0.394300
C      1.591600   -2.593900   -0.766400
C      0.154000   -2.402700   -0.806900
C     -0.864900   -3.266200   -1.122500
N     -2.167000   -2.890700   -1.101200
C     -2.468600   -1.619000   -0.756100
C     -3.804300   -1.230400   -0.733200
C     -4.219400    0.066900   -0.388200
C     -5.600900    0.407700   -0.382100
C     -6.098900    1.682200   -0.049200
C     -5.136600    2.657500    0.294800
N     -5.400000    3.926500    0.641800
S     -3.934300    4.643900    0.945100
N     -2.900400    3.379400    0.650700
C     -3.665700    2.329800    0.298400
C     -3.214100    1.011300   -0.050200
C     -1.854700    0.646100   -0.064700
C     -1.484000   -0.662600   -0.416000
C     -0.159400   -1.095700   -0.452400
C      3.592300   -1.266900   -0.252400
S      4.721900   -2.557600   -0.548100
C      6.089600   -1.599700   -0.182200
C      5.726000   -0.326300    0.159300
N      6.631800    0.633600    0.495100
C      6.004500    1.804200    0.789700
C      4.620100    2.006000    0.755800
N      3.696700    1.062700    0.423500
C      4.295700   -0.129600    0.120900
