33

C      1.069400   -0.333900    0.864300
C      2.069600   -0.756000   -0.194200
C      1.490200   -1.008400   -1.381000
C      0.073800   -0.751900   -1.219000
N     -0.830300   -0.911500   -2.181000
C     -2.109400   -0.618400   -1.814800
C     -2.564400   -0.143500   -0.558900
C     -1.530700   -0.063800    0.423300
C     -0.204800   -0.352400    0.074200
C     -1.911700    0.287900    1.759300
N     -1.084900    0.405300    2.815200
S     -2.013000    0.791000    4.125800
N     -3.508500    0.828100    3.425900
C     -3.347400    0.547800    2.117400
C     -4.386800    0.496700    1.133800
C     -5.742500    0.749700    1.575100
C     -6.854600    0.775700    0.726400
C     -6.480000    0.585900   -0.595300
C     -7.422000    0.650300   -1.593400
S     -6.702300    0.487500   -3.134300
C     -5.129000    0.341200   -2.452600
C     -5.130500    0.330000   -1.074300
C     -3.962900    0.202900   -0.228100
C      3.495500   -0.908300    0.109700
C      3.851300   -1.922800    1.012700
C      5.184300   -2.146000    1.341400
C      6.179100   -1.356600    0.771700
C      5.858000   -0.330500   -0.129400
C      6.877900    0.458800   -0.687200
C      6.583400    1.491500   -1.575700
C      5.263100    1.751400   -1.915900
C      4.238000    0.974700   -1.370700
C      4.503100   -0.088100   -0.473100
