26

C      2.820100    0.880800   -0.283500
C      3.774600   -0.187500    0.244600
C      3.099500   -1.236600    0.755300
C      1.683800   -0.961200    0.611500
N      0.713600   -1.758300    1.043700
C     -0.536800   -1.282600    0.805400
C     -0.881300   -0.082600    0.129100
C      0.223900    0.731200   -0.220000
N      0.100500    1.956700   -0.733400
C     -1.143600    2.448000   -0.866600
C     -2.311300    1.746500   -0.592000
C     -3.537500    2.399700   -0.744700
C     -4.728800    1.733300   -0.504700
C     -4.726900    0.376800   -0.194000
C     -5.964000   -0.273000   -0.040900
C     -6.034100   -1.643200    0.176900
C     -4.864300   -2.379700    0.210500
C     -3.628900   -1.735000    0.072600
C     -3.496600   -0.328900   -0.072900
C     -2.228600    0.398800   -0.165700
C      1.492800    0.261200    0.004700
C      5.196400   -0.132600    0.227300
C      6.156800   -1.034300    0.677400
C      7.434500   -0.484600    0.415600
C      7.203200    0.726400   -0.181800
O      5.872900    0.947900   -0.299800
