28

C      1.234000   -0.321900    0.409300
C      2.393300    0.346200   -0.325700
C      1.929900    1.167500   -1.289000
C      0.479900    1.115600   -1.274600
N     -0.299200    1.813900   -2.105400
C     -1.633400    1.624100   -1.927700
C     -2.241800    0.779700   -0.971300
C     -3.675600    0.622800   -0.834600
Si    -5.079500    1.447100   -1.830100
C     -6.342100    0.515000   -0.792700
C     -5.783000   -0.277300    0.139500
C     -4.326400   -0.222300    0.121100
C     -3.427600   -0.898700    0.930200
C     -3.708100   -1.781800    1.941300
N     -2.500900   -2.196600    2.457800
C     -1.458300   -1.588000    1.787400
C     -2.004800   -0.770700    0.826600
C     -1.331000    0.063600   -0.116000
C      0.045500    0.249500   -0.287800
C      3.791500    0.063700    0.044800
C      4.131400   -0.834700    1.090500
C      5.455900   -1.141700    1.487100
C      6.583500   -0.580100    0.877000
C      6.331300    0.327400   -0.176400
N      7.278400    0.965800   -0.880600
S      6.483900    1.905900   -1.989000
N      4.910500    1.547400   -1.627200
C      4.914400    0.665000   -0.611200
