24

C     -2.206300   -0.821600   -0.580200
C     -2.942400    0.274300    0.257200
C     -2.041500    1.075300    0.890500
C     -0.761700    0.603100    0.544000
O      0.511900    0.944100    0.826900
C      1.305900    0.048900    0.145800
C      0.517700   -0.860300   -0.569700
C      1.160900   -1.840100   -1.318500
N      2.519500   -1.901100   -1.345600
C      3.269100   -1.025200   -0.656500
C      4.664700   -1.152100   -0.733900
C      5.594700   -0.318800   -0.075100
C      5.047800    0.714600    0.716700
N      5.748200    1.613600    1.423000
S      4.633900    2.594800    2.165800
N      3.219700    1.921400    1.623600
C      3.553600    0.889200    0.829600
C      2.694200    0.002700    0.130700
C     -0.799700   -0.480400   -0.295200
C     -4.357800    0.440900    0.365300
C     -5.360600   -0.312700   -0.232500
N     -6.665000    0.055200    0.033000
C     -6.659400    1.093000    0.836000
S     -5.122000    1.673600    1.307800
