25

C     -0.528700    0.321100    1.426300
C     -1.554500   -0.283000    0.433900
C     -0.959700   -0.697900   -0.714500
C      0.408400   -0.396600   -0.579000
O      1.518400   -0.535100   -1.334300
C      2.550200   -0.018000   -0.580700
C      2.082200    0.445700    0.652700
C      3.002300    1.000400    1.536600
N      4.316200    1.082600    1.197900
C      4.748800    0.629900    0.003000
C      6.093400    0.720500   -0.329800
C      6.584900    0.262000   -1.561000
C      5.721400   -0.305500   -2.496500
C      4.367000   -0.414700   -2.201800
C      3.898500    0.053500   -0.958200
C      0.708000    0.189800    0.626400
C     -2.961100   -0.389000    0.782600
C     -3.453400   -0.712500    2.074900
C     -4.851200   -0.809300    2.417500
C     -5.910800   -0.581400    1.511700
C     -5.408400   -0.247900    0.262500
C     -6.137500    0.066600   -0.852100
O     -5.287500    0.371400   -1.878600
C     -4.008400    0.246700   -1.407100
C     -4.027100   -0.153700   -0.094100
