28

C     -0.964500   -0.872500   -1.062100
C     -2.073900   -0.156100   -0.231000
C     -1.506900    0.641600    0.714000
C     -0.107800    0.520700    0.586900
S      1.181300    1.206200    1.407700
C      2.351300    0.345800    0.407700
C      1.643200   -0.427200   -0.509800
C      0.256400   -0.334200   -0.415300
C      2.359800   -1.233500   -1.450900
N      1.745900   -1.990800   -2.348900
S      3.026200   -2.696200   -3.165300
N      4.320400   -2.016800   -2.351700
C      3.808700   -1.203900   -1.400500
C      4.542000   -0.413400   -0.462200
C      5.951700   -0.391200   -0.420800
C      6.609500    0.401000    0.518600
C      5.876500    1.173100    1.419500
C      4.478200    1.162300    1.391700
C      3.784900    0.370800    0.452600
C     -3.496600   -0.273400   -0.384500
S     -4.106200   -1.330500   -1.631400
C     -5.742500   -1.005100   -1.267900
C     -5.854000   -0.120400   -0.231400
N     -7.059200    0.297900    0.245800
C     -6.893100    1.172300    1.273200
C     -5.658600    1.591700    1.778900
N     -4.444000    1.187800    1.318800
C     -4.569700    0.304800    0.281700
