23

Si    -1.935400   -2.817400    2.231800
C     -2.619300   -1.420900    1.184600
C     -1.629500   -0.708000    0.602900
C     -1.820800    0.463100   -0.304300
C     -0.729900    1.046000   -0.872800
C      0.550200    0.520300   -0.546100
N      1.728200    1.039400   -1.055300
C      2.675400    0.268700   -0.495600
C      3.986300    0.173400   -0.515000
N      5.015800    0.793900   -1.098000
C      6.129100    0.107300   -0.620800
C      5.747700   -0.924000    0.248000
C      4.344400   -0.834700    0.279600
O      3.238100   -1.407500    0.828100
C      2.203500   -0.685300    0.316400
C      0.813300   -0.553900    0.310600
C     -0.262700   -1.228100    0.927400
C     -0.218000   -2.291500    1.748600
C     -3.079900    1.054800   -0.621100
C     -3.743600    1.334900   -1.800600
C     -4.971000    1.958400   -1.467200
C     -5.023000    2.052700   -0.095000
N     -3.871100    1.506600    0.409500
