24

C      0.506000   -1.458100   -0.022800
C      1.690300   -0.460300   -0.162200
C      1.222200    0.807600   -0.303200
C     -0.185400    0.741500   -0.269800
S     -1.387700    1.889600   -0.383400
C     -2.630500    0.665700   -0.216500
C     -2.067200   -0.618300   -0.075100
C     -2.929000   -1.713900    0.069800
N     -4.273100   -1.559200    0.075900
C     -4.796700   -0.328700   -0.059900
C     -6.169300   -0.134700   -0.058000
C     -6.716800    1.143500   -0.199000
C     -5.855900    2.218700   -0.341400
N     -4.514300    2.098400   -0.351400
C     -4.027400    0.835200   -0.211200
C     -0.653900   -0.531300   -0.111000
C      3.085900   -0.754500   -0.153100
S      3.626300   -2.420500    0.031800
C      5.308100   -2.025900   -0.045000
C      5.409900   -0.693500   -0.202500
N      6.566900    0.022000   -0.307100
C      6.073000    1.314800   -0.449000
C      4.662000    1.334900   -0.425700
C      4.215800   -0.007700   -0.260800
