23

C      1.580400    0.509400   -0.036600
C      2.555100   -0.697400   -0.115000
C      1.867100   -1.866500   -0.191000
C      0.494400   -1.541100   -0.169700
S     -0.900200   -2.472500   -0.229800
C     -1.917100   -1.050100   -0.136600
C     -3.326500   -0.920200   -0.127300
Si    -4.597600   -2.264500   -0.213900
C     -5.944500   -0.926600   -0.125700
C     -5.446500    0.322600   -0.044700
C     -3.987600    0.335700   -0.045000
C     -3.122200    1.414700    0.024700
C     -3.446100    2.749000    0.111900
N     -2.261900    3.467900    0.158000
C     -1.176200    2.614600    0.101600
C     -1.716800    1.366200    0.020600
C     -1.086700    0.079500   -0.063500
C      0.275200   -0.191300   -0.081800
C      3.984400   -0.497500   -0.101700
C      4.644600    0.680400   -0.027100
C      6.098200    0.606000   -0.030400
C      6.611800   -0.633600   -0.107700
Si     5.254900   -1.923100   -0.189900
