23

C      1.595600   -0.822300   -1.633700
C      1.875400   -0.509600   -3.089400
C      1.305800    0.670600   -3.384900
C      0.638500    1.205700   -2.224200
C      0.777600    0.368900   -1.181500
C      0.273000    0.492000    0.161700
Si    -0.860600    1.926400    0.738900
C     -0.888100    1.129000    2.438200
C     -0.154200    0.000100    2.458700
C      0.490100   -0.348300    1.198700
C     -1.625100    1.626900    3.535000
S     -1.340600    3.232700    4.153200
C     -2.538800    3.089100    5.385800
C     -3.131600    1.858400    5.341300
C     -4.167100    1.294900    6.152100
C     -4.522400    0.032900    5.824200
Si    -3.502100   -0.611600    4.336100
C     -2.600300    1.049100    4.301900
C      2.636300   -1.394600   -3.934400
Si     2.965700   -1.066700   -5.785800
C      3.928900   -2.674400   -5.835200
C      3.939900   -3.269600   -4.629100
C      3.223000   -2.561200   -3.578800
