32

C     -2.055900    0.236500    0.076600
C     -3.151100   -0.080200   -0.929500
C     -2.569100   -0.318800   -2.120900
C     -1.136500   -0.193800   -2.019400
C     -0.810400    0.114000   -0.755800
C      0.531300    0.361400   -0.226800
C      0.829200    1.678500    0.137500
C      2.088800    2.009200    0.622600
C      3.089200    1.034100    0.760700
C      4.402500    1.463500    1.240900
C      5.529900    1.614600    0.421200
N      6.793200    2.010300    0.788900
C      7.074400    2.319900    2.088200
C      6.035200    2.222500    3.034300
N      6.122400    2.486200    4.348300
S      4.613600    2.206300    4.981700
N      3.786300    1.746100    3.620600
C      4.660600    1.783700    2.598400
C      2.802600   -0.319300    0.414000
C      3.755500   -1.359200    0.558400
C      3.468800   -2.682700    0.223700
C      2.214400   -3.010200   -0.259700
C      1.251300   -2.012800   -0.407300
C      1.512200   -0.657800   -0.085600
C     -4.560800   -0.132300   -0.736500
S     -5.250000    0.344900    0.812100
C     -6.883700    0.043300    0.330700
C     -6.862000   -0.398200   -0.940200
N     -7.943700   -0.753900   -1.691800
C     -7.333000   -1.124400   -2.886000
C     -5.930700   -0.982100   -2.815400
C     -5.613400   -0.493800   -1.515600
