27

C      3.279700    0.250400    0.457400
C      4.510900    0.383100   -0.413300
C      4.115300    0.604500   -1.681900
C      2.677200    0.639000   -1.759200
C      2.162100    0.434700   -0.536900
C      0.765100    0.403200   -0.163300
C      0.044300    1.545600   -0.255400
C     -1.362800    1.645900    0.123100
C     -2.071000    0.604100    0.615700
C     -3.448500    0.827000    0.919100
S     -3.921400    1.636100    2.384600
C     -5.608600    1.500700    2.035600
C     -5.805700    0.855400    0.845900
C     -7.011300    0.513400    0.156100
C     -6.829600   -0.135500   -1.015400
Si    -4.962700   -0.398100   -1.387500
C     -4.580800    0.482700    0.235100
C     -1.371700   -0.678200    0.740700
C     -1.912100   -1.828700    1.193800
Si    -0.676900   -3.223100    1.148800
C      0.577000   -2.021500    0.461300
C      0.056600   -0.782700    0.338000
C      5.891900    0.305700   -0.076400
N      6.913200    0.433200   -0.906500
C      8.111400    0.301100   -0.235200
C      8.011000    0.070300    1.116300
S      6.363100    0.015700    1.569300
