26

Si     1.506300    1.314400    3.485700
C      2.290600    1.114300    1.802800
C      1.383500    0.730000    0.878600
C      1.676200    0.477800   -0.560000
C      0.661600    0.105300   -1.386800
C     -0.635300   -0.026100   -0.820300
N     -1.732300   -0.395300   -1.551100
C     -2.802500   -0.421900   -0.689500
C     -4.170500   -0.672000   -0.609000
Si    -5.686900   -1.165300   -1.540500
C     -6.661800   -0.999700    0.142800
C     -5.856200   -0.626500    1.163400
C     -4.528500   -0.463900    0.705600
N     -3.444100   -0.096500    1.442200
C     -2.373600   -0.071200    0.572500
C     -0.992500    0.182900    0.498500
C     -0.000900    0.574300    1.430200
C     -0.135700    0.828500    2.744100
C      2.968900    0.588000   -1.146500
S      3.483900    1.939700   -2.090400
C      5.057300    1.284700   -2.347100
C      5.120800    0.092700   -1.713300
C      6.140700   -0.878800   -1.574800
C      5.731000   -1.976000   -0.808100
S      4.083600   -1.927500   -0.191900
C      3.979200   -0.330700   -1.032300
