27

C     -0.605000    0.283000   -0.284300
C      0.524700   -0.547000    0.302300
C     -0.030900   -1.519300    1.052700
C     -1.468600   -1.420600    1.030100
C     -1.837300   -0.376100    0.274100
C     -3.179300    0.080700   -0.040000
C     -3.584500    0.569600   -1.310400
C     -4.913600    1.028400   -1.623100
C     -5.979700    1.061500   -0.698300
C     -5.561400    0.600000    0.541800
C     -6.340600    0.530200    1.667100
N     -5.536300    0.052800    2.678500
C     -4.259300   -0.175400    2.207400
C     -4.247300    0.135200    0.867700
C      1.933500   -0.380800    0.124500
S      3.112200   -1.430100    0.855600
C      4.461700   -0.615100    0.173500
C      5.809600   -1.037300    0.409800
C      6.402600   -1.353900    1.619700
N      7.724300   -1.758400    1.564700
C      8.118000   -1.758000    0.311100
S      6.950300   -1.288100   -0.851000
C      4.040200    0.451800   -0.571700
S      4.950200    1.720000   -1.494900
C      3.370300    2.356600   -1.899500
C      2.272800    1.670700   -1.370900
C      2.643900    0.545900   -0.579900
