28

C      2.935900    0.068000    0.205400
C      1.592400    0.662100    0.586300
C      1.803800    1.918700    1.019600
C      3.208000    2.241300    0.965800
C      3.903300    1.191000    0.497200
C      5.351400    1.082400    0.280300
C      5.932200   -0.089500   -0.218600
C      7.311300   -0.168800   -0.416400
C      8.085000    0.935000   -0.108100
N      7.577900    2.086000    0.374200
C      6.232800    2.129400    0.554700
C      0.309900    0.060800    0.523000
S     -1.205800    0.784300    0.967600
C     -2.152500   -0.630000    0.564000
C     -3.568300   -0.647700    0.730300
C     -4.063900   -1.402200    1.742100
C     -5.492800   -1.509800    2.032500
C     -6.421100   -0.863500    1.303900
C     -5.985800   -0.040700    0.194700
C     -6.801100    0.651500   -0.622200
Si    -5.812900    1.562600   -1.924700
C     -4.255000    0.851800   -1.172600
C     -4.537300    0.073400   -0.107300
C     -1.280000   -1.567400    0.123500
C     -1.273500   -2.887000   -0.359600
C      0.072000   -3.169300   -0.622000
O      0.935300   -2.125900   -0.343800
C      0.041800   -1.194600    0.100600
