28

C     -2.076600   -0.219500    0.287700
C     -1.106200    0.509600   -0.619500
C     -1.797300    1.006900   -1.660600
C     -3.197800    0.693100   -1.526900
C     -3.404700   -0.019700   -0.406000
C     -4.671800   -0.547600    0.115600
C     -5.894400   -0.334500   -0.531900
C     -7.076800   -0.852900   -0.002200
C     -7.009200   -1.578500    1.172900
N     -5.860300   -1.812700    1.836300
C     -4.729000   -1.294400    1.294000
C      0.298500    0.640600   -0.492700
S      1.296200   -0.669400    0.022000
C      2.755300    0.247100   -0.056200
C      4.049600   -0.338000    0.246500
N      5.107000    0.030900   -0.548700
C      6.362800   -0.471500   -0.338700
C      6.757400   -1.362900    0.652300
C      5.709600   -1.750600    1.508200
N      5.832700   -2.589500    2.548800
S      4.328900   -2.708200    3.239200
N      3.457500   -1.700600    2.254000
C      4.305300   -1.231100    1.319300
C      2.417500    1.495100   -0.470400
C      3.170800    2.674900   -0.713000
C      2.374800    3.756200   -1.101200
S      0.649700    3.453800   -1.200300
C      1.065000    1.758200   -0.705200
