28

C     -0.983700   -0.205200    0.002500
C     -2.137700   -1.101400    0.379500
C     -1.627100   -2.203700    0.961100
C     -0.189600   -2.131500    1.013600
C      0.230000   -0.979500    0.464400
C      1.612600   -0.519500    0.320600
C      2.735300   -1.236900    0.751400
N      4.057200   -0.885900    0.658500
C      4.442200    0.302100    0.086600
C      5.866400    0.635800    0.009300
N      6.385100    1.737000   -0.505100
C      7.761300    1.721600   -0.412100
C      8.302300    0.603100    0.176500
S      7.049800   -0.469200    0.631200
C      3.420400    1.154400   -0.405500
N      3.545600    2.355000   -1.000400
S      2.030500    2.892600   -1.365300
N      1.120500    1.638400   -0.793100
C      1.964300    0.722200   -0.280300
C     -3.562200   -0.824100    0.154200
C     -4.590900   -1.732800    0.548600
C     -5.996500   -1.532200    0.363200
C     -6.546400   -0.392800   -0.242200
C     -5.560500    0.508500   -0.635400
C     -5.894500    1.690700   -1.249200
S     -4.501000    2.607900   -1.625800
C     -3.452800    1.413600   -0.962900
C     -4.126400    0.324300   -0.456400
