31

C      2.363200   -0.584300   -0.051900
C      3.508300   -1.581700    0.067000
C      3.010500   -2.724200    0.581500
C      1.600000   -2.587100    0.838300
C      1.189700   -1.358400    0.487100
C     -0.164800   -0.844900    0.633100
N     -1.088500   -1.623800    1.287700
C     -2.374200   -1.192500    1.486400
C     -2.938000    0.014500    1.067500
C     -4.315100    0.397500    1.313400
S     -4.874700    0.553200    2.947600
C     -6.479100    0.971300    2.462300
C     -6.580900    0.992600    1.098400
C     -7.703500    1.261700    0.253400
C     -7.454200    1.163800   -1.072200
Si    -5.623100    0.707100   -1.404400
C     -5.350200    0.670600    0.464700
C     -2.035700    0.851100    0.366700
N     -2.302900    2.057700   -0.167200
S     -0.898100    2.614600   -0.839500
N      0.116600    1.346600   -0.521100
C     -0.597100    0.420700    0.145800
C      4.884100   -1.382700   -0.284000
S      6.076700   -2.639700   -0.137300
C      7.352400   -1.655200   -0.709500
C      6.910200   -0.397200   -1.015700
N      7.733200    0.579700   -1.494300
C      7.039700    1.731000   -1.709300
C      5.670400    1.900000   -1.475800
N      4.829700    0.940200   -1.003600
C      5.495800   -0.233900   -0.773700
