30

C      1.435700    0.595700   -0.449500
C      2.908000    0.380800   -0.149800
C      2.993100   -0.584700    0.782100
C      1.680500   -1.054800    1.148900
C      0.733200   -0.397200    0.457800
C     -0.659100   -0.633500    0.594400
S     -1.851500    0.223200   -0.336400
C     -3.208400   -0.600100    0.383200
C     -4.564400   -0.306300    0.012100
S     -5.900900   -0.501200    1.121300
C     -7.090400    0.041900   -0.016100
C     -6.453000    0.342700   -1.163700
N     -7.023200    0.803200   -2.314400
C     -5.907600    0.924900   -3.138600
C     -4.724900    0.541700   -2.470600
C     -5.087700    0.156400   -1.149500
C     -2.700900   -1.475000    1.285400
C     -3.124900   -2.454200    2.205500
C     -1.951300   -2.951400    2.779700
O     -0.797000   -2.370700    2.296700
C     -1.327800   -1.492400    1.396600
C      4.051500    1.038800   -0.708000
S      3.782200    2.291400   -1.892500
C      5.446700    2.607800   -2.104300
C      6.210900    1.798200   -1.310400
N      7.571700    1.859300   -1.300300
C      8.087500    0.952400   -0.428700
C      7.334000    0.072900    0.354800
N      5.976400   -0.005500    0.361200
C      5.418200    0.894000   -0.505300
