24

C     -0.873400   -0.494400   -0.145400
C      0.072600    0.672700   -0.302600
C     -0.658700    1.787400   -0.481300
C     -2.064000    1.471300   -0.456200
C     -2.240700    0.153800   -0.251100
C     -3.529300   -0.445600   -0.187400
S     -3.738300   -2.100000   -0.686900
C     -5.426400   -2.108700   -0.369000
C     -5.821100   -0.901300    0.125100
S     -7.443400   -0.327500    0.657500
C     -6.616200    1.173200    1.041000
C     -5.242500    1.209000    0.774300
C     -4.753700   -0.006900    0.216800
C      1.495200    0.719500   -0.286800
N      2.245300    1.796700   -0.430000
C      3.584900    1.466400   -0.361600
C      3.876700    0.131200   -0.164300
S      2.400600   -0.738400   -0.061800
C      5.178200   -0.518200   -0.050400
N      5.211800   -1.838600    0.141200
C      6.437700   -2.344100    0.233100
N      7.575100   -1.658000    0.151400
C      7.408600   -0.351700   -0.040000
N      6.244000    0.281100   -0.149400
