20

Si     1.941200    1.523000   -0.835600
C      1.088400   -0.091900   -0.096600
C      1.994200   -0.935900    0.455500
C      3.292700   -0.390200    0.357100
N      4.465700   -0.916700    0.797200
C      5.475400   -0.023600    0.473900
C      4.927100    1.073300   -0.177100
C      3.564900    0.817600   -0.236400
C     -0.336500   -0.299700   -0.249500
C     -0.893400   -1.256400   -1.129500
C     -2.305100   -1.428000   -1.254500
S     -3.176400   -2.522100   -2.271700
C     -4.701600   -1.966700   -1.700700
C     -4.587100   -0.970600   -0.753900
C     -3.230000   -0.692800   -0.529000
C     -2.702200    0.270800    0.382600
C     -3.349400    1.116600    1.232600
N     -2.341300    1.797900    1.883400
C     -1.102700    1.369100    1.433600
C     -1.306600    0.406500    0.467400
