27

C      1.858900   -1.480300    0.363000
C      2.513300   -0.267900    0.281700
O      1.592300    0.724000    0.108500
C      0.353500    0.149200    0.069800
C      0.461400   -1.220200    0.232000
C     -0.731000   -1.979400    0.273100
C     -0.617200   -3.367200    0.516500
C     -1.751700   -4.152900    0.667100
C     -2.999000   -3.555200    0.610100
C     -3.112300   -2.180800    0.356500
C     -1.998100   -1.336700    0.114500
C     -2.074000    0.089600   -0.205100
C     -0.862900    0.825500   -0.124600
C     -0.802100    2.224100   -0.240700
C     -1.958100    2.950900   -0.472000
C     -3.170300    2.295100   -0.678700
C     -4.300000    3.059300   -0.997700
C     -5.483100    2.416000   -1.296700
N     -5.602100    1.081700   -1.328400
C     -4.491800    0.366400   -1.006200
C     -3.242400    0.877400   -0.602300
C      3.913000    0.148100    0.345200
C      4.278700    1.497400    0.219200
C      5.619300    1.889300    0.280400
C      6.616200    0.936200    0.469000
C      6.273600   -0.407300    0.596000
C      4.932100   -0.798000    0.534500
