26

C      2.740000    1.206700   -1.286300
C      3.276200    0.372000   -0.317900
O      2.260500   -0.233200    0.375800
C      1.101100    0.219400   -0.154500
C      1.329400    1.110500   -1.183500
C      0.206500    1.664600   -1.831000
C     -1.129700    1.327800   -1.449600
C     -1.424000    0.419700   -0.401300
C     -0.341300   -0.142600    0.255300
O     -0.729100   -0.989500    1.232400
C     -2.089100   -0.987400    1.221700
C     -2.874400   -1.741100    2.088500
C     -4.258200   -1.626500    1.947700
C     -4.832200   -0.791500    0.978800
C     -6.227200   -0.696100    0.860000
C     -6.811000    0.131500   -0.100400
C     -6.009300    0.877400   -0.958100
C     -4.618800    0.800400   -0.860600
C     -4.007700   -0.030000    0.103100
C     -2.586700   -0.135200    0.233300
C      4.636100    0.024500    0.092100
C      4.872100   -0.879900    1.139300
C      6.174200   -1.208800    1.527500
C      7.262000   -0.637400    0.873200
C      7.048500    0.261900   -0.168100
C      5.745300    0.590200   -0.555400
