29

C      1.934800   -1.703500   -0.146300
C      2.336000   -0.383000   -0.217100
O      1.232300    0.422500   -0.136300
C      0.131000   -0.372600   -0.014600
C      0.520900   -1.705400   -0.016300
C     -0.464100   -2.695400    0.099700
C     -1.809400   -2.304200    0.213300
C     -2.224200   -0.955500    0.216800
C     -3.607200   -0.628100    0.335500
N     -4.529500   -1.610800    0.445500
C     -5.843000   -1.297100    0.558200
C     -6.333100   -0.008200    0.570100
C     -5.418800    1.024800    0.459600
C     -4.046700    0.722600    0.341200
C     -3.058600    1.752200    0.224000
N     -3.287000    3.079100    0.210900
S     -1.811200    3.815200    0.056400
N     -0.822900    2.493200   -0.000500
C     -1.601900    1.402900    0.099100
C     -1.202200    0.041800    0.097300
C      3.608900    0.297900   -0.351500
N      3.626500    1.670200   -0.388400
C      4.795800    2.367900   -0.513800
C      6.078500    1.843500   -0.618200
C      6.112900    0.437000   -0.585300
N      7.224600   -0.310800   -0.668200
S      6.737400   -1.893400   -0.582800
N      5.096500   -1.704500   -0.436800
C      4.850700   -0.379700   -0.448300
