25

C     -1.240200    1.723000   -0.104900
C     -1.982700    0.558300    0.037100
O     -1.179200   -0.558900    0.132400
C      0.091600   -0.087100    0.048700
C      0.069900    1.243200   -0.090000
O      1.338600    1.723500   -0.174500
C      2.139600    0.605500   -0.079100
C      1.403300   -0.572300    0.064100
C      2.059200   -1.805100    0.175500
C      3.463200   -1.821000    0.139300
C      4.211000   -0.637700   -0.004800
C      5.609600   -0.633300   -0.043000
C      6.272700    0.579300   -0.187800
N      5.655800    1.777300   -0.296600
C      4.303900    1.768400   -0.259200
C      3.548500    0.602700   -0.116800
C     -3.417700    0.342900    0.098300
N     -4.212500    1.461200    0.002700
C     -5.577100    1.369300    0.049100
C     -6.337000    0.214600    0.190500
C     -5.565000   -0.957900    0.292500
N     -6.061900   -2.196700    0.435600
S     -4.759500   -3.220900    0.507600
N     -3.511900   -2.142500    0.361000
C     -4.055200   -0.915800    0.247300
