22

C      1.565700   -0.043900    2.059000
C      2.208800    0.106000    0.846600
O      1.312600    0.129300   -0.191500
C      0.082500   -0.008500    0.378100
C      0.192900   -0.114600    1.717800
S     -1.357700   -0.289600    2.450500
C     -2.144000   -0.213400    0.884500
C     -1.222500   -0.057300   -0.162000
C     -1.680700    0.022800   -1.493900
C     -3.048400   -0.053000   -1.770600
C     -3.980600   -0.208300   -0.742300
C     -5.352200   -0.285200   -1.008800
C     -6.233600   -0.439400    0.050500
N     -5.854200   -0.521800    1.342100
C     -4.525000   -0.446300    1.589500
C     -3.545000   -0.290800    0.598500
C      3.619400    0.240300    0.472600
C      4.635100    0.232900    1.425800
C      5.956900    0.364900    1.003600
C      6.228600    0.500000   -0.351700
C      5.162200    0.497600   -1.233400
N      3.873000    0.371500   -0.852600
