25

C      1.877800    1.187900   -0.822100
C      2.479900    0.143100   -0.125400
S      1.258300   -0.890700    0.531700
C      0.023600    0.048900   -0.107200
C      0.443700    1.145700   -0.819900
C     -0.545200    1.974800   -1.381800
N     -1.883200    1.769500   -1.270800
C     -2.341300    0.703300   -0.578900
C     -1.484500   -0.189000    0.022200
N     -2.180400   -1.175500    0.657500
C     -3.536500   -0.953600    0.487800
C     -4.654300   -1.675200    0.941700
C     -5.945200   -1.219100    0.619300
C     -6.047600   -0.039900   -0.156800
N     -7.196200    0.540100   -0.558100
S     -6.762000    1.897900   -1.441800
N     -5.092900    1.807500   -1.352800
C     -4.898300    0.715300   -0.632200
C     -3.611500    0.206200   -0.275100
C      3.924400   -0.133600    0.082000
C      4.895900    0.724900   -0.464300
C      6.264600    0.490700   -0.286100
C      6.694900   -0.610600    0.444400
C      5.757400   -1.476100    0.995900
C      4.389000   -1.239700    0.816300
