22

C     -1.575600   -0.954700    0.101600
C     -2.385200    0.168600    0.166600
S     -1.403300    1.578500    0.219500
C      0.066200    0.698400    0.156700
C      1.368500    1.210700    0.162400
C      2.471900    0.351600    0.105800
C      2.234600   -1.017800    0.044200
C      0.943200   -1.536100    0.037900
C     -0.167700   -0.672200    0.094900
N      3.458700   -1.645000   -0.003200
C      4.477200   -0.723500    0.026100
C      5.863300   -0.875100   -0.000900
C      6.602500    0.303900    0.044600
C      5.938700    1.521700    0.111900
N      4.599800    1.687000    0.138900
C      3.883500    0.534500    0.094400
C     -3.868400    0.252500    0.191800
C     -4.559300    1.476000    0.259500
C     -5.958500    1.526400    0.282000
C     -6.701300    0.352300    0.237000
C     -6.045500   -0.871400    0.169700
C     -4.646500   -0.918900    0.147400
