28

C      6.571300    1.368900    0.060500
C      6.881500    0.087800   -0.334100
N      5.707000   -0.606700   -0.474000
C      4.642700    0.210000   -0.174700
C      5.160900    1.446300    0.161100
C      3.275200   -0.209000   -0.222700
C      2.746600   -1.450500   -0.559000
C      1.368100   -1.292900   -0.436800
C      0.307400   -2.199200   -0.645200
N      0.533200   -3.447100   -1.024700
S     -1.014200   -4.070800   -1.123200
N     -1.906200   -2.732100   -0.680300
C     -1.059500   -1.715200   -0.427700
C     -1.398400   -0.360500   -0.010500
C     -0.246700    0.456800    0.166700
C     -0.397500    1.777800    0.563600
N     -1.589100    2.361900    0.800900
C     -2.711300    1.654000    0.654300
C     -3.893700    2.393000    0.936700
C     -5.218400    1.918200    0.869700
C     -5.206200    0.597300    0.480400
C     -6.316200   -0.183000    0.311800
O     -5.928800   -1.428700   -0.076000
C     -4.561400   -1.429500   -0.151300
C     -4.053100   -0.198200    0.183100
C     -2.694600    0.266100    0.245100
C      1.059900   -0.023000   -0.046300
O      2.241600    0.655000    0.088300
