28

C      6.031400   -0.145300   -1.567700
C      6.473300   -0.107500   -0.265100
N      5.373000   -0.062800    0.552600
C      4.226600   -0.071300   -0.205700
C      4.615900   -0.122500   -1.530600
C      2.905500   -0.032500    0.343000
C      2.506900    0.019100    1.673900
C      1.114100    0.038700    1.627400
C      0.157100    0.088900    2.668800
N      0.527000    0.126700    3.939900
S     -0.945200    0.176200    4.734200
N     -1.990700    0.147800    3.437600
C     -1.261300    0.097800    2.300800
C     -1.747400    0.058600    0.935300
C     -3.167800    0.068300    0.587400
N     -4.125000    0.115300    1.536300
C     -5.436900    0.123600    1.196000
C     -5.905000    0.086400   -0.101300
C     -4.969000    0.037400   -1.117600
C     -3.599000    0.028100   -0.777900
C     -2.529000   -0.019500   -1.696400
C     -2.585200   -0.065500   -3.066000
O     -1.318900   -0.102300   -3.577900
C     -0.449800   -0.079400   -2.523100
C     -1.151600   -0.028500   -1.345400
C     -0.668600    0.008800   -0.040300
C      0.676500    0.001100    0.333600
O      1.785100   -0.043100   -0.465900
