22

C     -6.334000    0.510300    0.052600
C     -6.000400   -0.476400    0.949500
N     -4.632800   -0.574600    0.978700
C     -4.073200    0.336100    0.111700
C     -5.123200    1.021300   -0.474200
C     -2.665800    0.499200   -0.102300
C     -2.012500    1.379900   -0.945700
C     -0.622600    1.167000   -0.811500
N      0.396900    1.794800   -1.437700
C      1.633700    1.359300   -1.090900
C      1.959600    0.345700   -0.168800
C      0.868300   -0.277300    0.456100
C      1.113700   -1.289400    1.380500
N      2.347500   -1.714200    1.717500
C      3.401900   -1.128900    1.129000
C      4.666000   -1.577300    1.486600
C      5.827600   -1.036500    0.934500
C      5.730000   -0.019200   -0.001400
C      4.471700    0.450400   -0.378600
C      3.281900   -0.089600    0.174000
C     -0.435500    0.152200    0.117900
N     -1.690000   -0.235900    0.533100
