32

C     -6.848800    1.880700   -0.676100
C     -6.992600    0.539300   -0.941600
N     -5.760900   -0.047900   -0.820000
C     -4.820500    0.890600   -0.453100
C     -5.482000    2.104800   -0.383500
C     -3.419600    0.576500   -0.265700
C     -2.349300    1.354600   -0.757800
C     -0.963100    1.077400   -0.587000
N     -0.133300    1.996000   -1.069400
C      1.210000    1.842200   -0.900100
C      1.884600    0.748900   -0.341800
C      3.377200    0.675400   -0.214900
C      4.312000    1.751500   -0.507000
N      4.002000    2.993100   -0.924900
S      5.407900    3.840700   -1.109500
N      6.512500    2.693900   -0.665800
C      5.816100    1.591200   -0.350100
C      6.400500    0.387700    0.088900
C      5.509100   -0.646300    0.369800
C      4.088700   -0.506300    0.228800
C      3.176300   -1.550700    0.469400
C      3.502500   -2.852300    0.777700
N      2.334300   -3.573200    0.800400
C      1.275700   -2.747900    0.500400
C      1.750000   -1.460600    0.389400
C      0.994400   -0.296400    0.067300
C     -0.451800   -0.084500    0.067200
C     -1.542600   -0.795600    0.659200
C     -1.507900   -1.775100    1.620600
O     -2.774300   -2.149800    1.968100
C     -3.638100   -1.347700    1.282900
C     -2.930100   -0.480400    0.490900
