26

C      6.663900   -0.778300    0.435600
C      6.594200    0.468600   -0.136600
N      5.270000    0.790400   -0.287400
C      4.468000   -0.231400    0.179500
C      5.334100   -1.217000    0.633700
C      3.003900   -0.210400    0.166400
C      2.252900    0.843600   -0.318900
C      0.871000    0.776900   -0.291600
N      0.203500    1.826900   -0.774800
C     -1.150800    1.801400   -0.766300
C     -1.961700    0.766100   -0.293200
C     -3.418300    0.839500   -0.330300
C     -4.160900    1.926600   -0.830800
N     -5.515400    2.024600   -0.878900
C     -6.225000    0.986300   -0.404300
C     -5.640800   -0.146500    0.116800
C     -4.233700   -0.213700    0.150900
C     -3.562300   -1.357000    0.677000
N     -4.157700   -2.454400    1.179000
S     -2.955900   -3.482800    1.653600
N     -1.629400   -2.588000    1.246200
C     -2.057600   -1.429600    0.713800
C     -1.230200   -0.350900    0.220900
C      0.220900   -0.350800    0.224300
C      1.077100   -1.363600    0.690900
N      2.429800   -1.315900    0.672200
