21

C     -5.239100   -0.332600    0.363500
C     -5.076700    0.498000   -0.720200
N     -3.732500    0.674000   -0.917900
C     -3.017800   -0.011000    0.040800
C     -3.945700   -0.665000    0.833000
C     -1.570400   -0.035200    0.085100
C     -0.797900   -1.219900    0.205200
C      0.622300   -1.291400    0.239800
N      1.177300   -2.505100    0.346300
C      2.526600   -2.652400    0.384800
C      3.377400   -1.545200    0.314100
C      4.791100   -1.387100    0.329800
C      5.061500   -0.043200    0.229400
N      3.865200    0.620200    0.153700
C      2.816500   -0.269500    0.202300
C      1.429200   -0.112500    0.161700
C      0.676900    1.063400    0.058600
C      1.086400    2.369900   -0.015300
O     -0.001000    3.197600   -0.075200
C     -1.118500    2.413900   -0.035600
C     -0.754000    1.093700    0.023100
