24

C      5.729300    2.144900   -2.804000
C      5.075100    3.065900   -2.019900
N      4.041600    2.422700   -1.388500
C      4.011900    1.098700   -1.760400
C      5.065200    0.905500   -2.635400
C      3.055300    0.150300   -1.278100
C      3.122200   -1.229100   -1.273100
C      1.924900   -1.721400   -0.699200
C      1.133700   -0.636200   -0.373600
N      1.840700    0.490700   -0.731800
C     -0.181400   -0.566900    0.230500
C     -0.435200    0.097000    1.452300
C     -1.725500    0.167200    2.064900
C     -2.893400   -0.416100    1.515600
C     -4.203500   -0.318500    2.129700
C     -5.374200    0.240000    1.650300
N     -6.470500    0.163800    2.488600
C     -6.119200   -0.446100    3.598600
S     -4.484300   -0.951300    3.701900
C     -2.647300   -1.077900    0.297000
C     -3.597700   -1.752100   -0.436400
S     -2.940900   -2.422100   -1.874500
C     -1.368700   -1.834200   -1.517500
C     -1.335100   -1.151600   -0.322900
