29

C     -7.553700   -0.156800   -0.736200
C     -7.391200    1.205900   -0.825500
N     -6.051200    1.477200   -0.735800
C     -5.341000    0.307700   -0.577000
C     -6.265200   -0.722700   -0.583200
C     -3.896000    0.287500   -0.459100
C     -3.033500    0.856500   -1.423800
C     -1.606200    0.833900   -1.326600
C     -0.889300    0.240900   -0.257000
C      0.555900    0.228000   -0.178000
C      1.323400    1.336100    0.256100
C      2.752000    1.340800    0.339500
C      3.577400    0.241200   -0.009800
C      5.030000    0.273200    0.073900
C      5.689500    0.370400    1.304200
C      7.081800    0.404500    1.351500
C      7.781200    0.344400    0.158200
N      7.190500    0.257100   -1.051500
C      5.835700    0.227400   -1.064000
C      2.816800   -0.863500   -0.441200
C      3.353500   -2.076300   -0.811300
S      2.140900   -3.196000   -1.284600
C      0.880800   -2.071700   -0.980100
C      1.368400   -0.868300   -0.522800
C     -1.749600   -0.314900    0.709700
C     -1.316600   -0.932900    1.861000
S     -2.628400   -1.478400    2.823800
C     -3.789900   -0.883200    1.708100
C     -3.197500   -0.295300    0.613700
