20

C     -6.536900   -0.683100    0.511500
C     -6.683000    0.579100   -0.012300
N     -5.431100    1.077000   -0.264000
C     -4.469500    0.155300    0.089000
C     -5.147400   -0.950500    0.575600
C     -3.057000    0.397100   -0.060900
C     -2.439300    1.528300   -0.556000
C     -1.014900    1.421900   -0.560500
C     -0.563100    0.210900   -0.068900
S     -1.891300   -0.775400    0.390000
C      0.802100   -0.243300    0.074200
C      1.274200   -1.450200    0.563400
N      2.647600   -1.611200    0.583500
C      3.226200   -0.530300    0.110900
S      2.157200    0.720300   -0.376000
C      4.653600   -0.419900    0.015400
C      5.623700   -1.341000    0.367800
C      6.890000   -0.773200    0.086300
C      6.666900    0.482000   -0.431600
N      5.311900    0.686400   -0.470600
