25

C      6.566200    0.042700    0.105600
C      6.151600   -1.210700    0.479700
N      4.781900   -1.223900    0.459000
C      4.284800    0.007800    0.075000
C      5.401000    0.805300   -0.147700
C      2.845500    0.312400   -0.043800
C      2.430000    1.597000   -0.442500
C      1.073800    1.945300   -0.573000
C      0.101400    0.974500   -0.294900
C      0.527200   -0.292100    0.098500
C      1.868000   -0.660000    0.234700
O     -0.537600   -1.121500    0.331800
C     -1.677900   -0.397200    0.090700
C     -1.293500    0.868100   -0.287700
C     -2.302400    1.823200   -0.596800
N     -2.030200    3.063900   -0.969700
S     -3.556500    3.717500   -1.196400
N     -4.518800    2.402000   -0.813100
C     -3.689800    1.385900   -0.488700
C     -4.067500    0.058100   -0.091100
C     -5.402900   -0.378300    0.017700
C     -5.677500   -1.689700    0.412100
C     -4.635600   -2.576000    0.700800
C     -3.305000   -2.163900    0.599300
C     -3.012400   -0.847700    0.203800
