28

C      6.590700    0.914900   -0.638700
C      6.488900   -0.031600    0.349800
N      5.158800   -0.294300    0.545300
C      4.379900    0.468700   -0.303900
C      5.273000    1.229000   -1.048700
C      2.911000    0.417700   -0.339400
C      2.176000    1.207200   -1.213700
N      0.817900    1.224400   -1.314200
C      0.056400    0.436400   -0.532200
C      0.742800   -0.403800    0.392400
C      2.158800   -0.410600    0.485500
C     -0.132000   -1.192200    1.167900
C      0.203700   -2.098600    2.141000
O     -0.927000   -2.656000    2.658100
C     -1.991400   -2.098800    2.008000
C     -1.556300   -1.187800    1.077000
C     -2.293100   -0.390800    0.194600
C     -3.697100   -0.353400    0.070100
N     -4.738300   -1.011000    0.698100
C     -5.954100   -0.600800    0.193200
C     -5.725500    0.342100   -0.783900
C     -4.335600    0.470700   -0.834700
C     -3.569500    1.319500   -1.680300
N     -4.150300    2.122900   -2.559900
S     -2.841500    2.876700   -3.272800
N     -1.592200    2.157500   -2.441100
C     -2.116900    1.282200   -1.553000
C     -1.405200    0.436500   -0.621000
