28

C      7.331700   -0.043300    1.602000
C      6.686800   -0.960800    2.397000
N      5.361400   -0.952900    2.053000
C      5.134600   -0.050100    1.035500
C      6.356500    0.531900    0.748900
C      3.829100    0.160800    0.477200
S      2.381500   -0.202400    1.355000
C      1.343800    0.303900    0.080200
C     -0.092800    0.230900    0.233200
C     -0.837900    0.958200    1.191200
C     -2.269000    0.887000    1.315800
C     -3.112800    0.078200    0.504900
C     -4.559800    0.005700    0.645300
C     -5.362000    1.150400    0.568800
C     -6.744700    1.051700    0.715400
C     -7.293600   -0.198800    0.940900
N     -6.564800   -1.330000    1.029700
C     -5.222700   -1.198500    0.884100
C     -2.352400   -0.632200   -0.436700
C     -2.810300   -1.491200   -1.407800
N     -1.712000   -1.963300   -2.093400
C     -0.558700   -1.406400   -1.586300
C     -0.925400   -0.559600   -0.567200
C      2.127300    0.718700   -0.944200
C      1.840100    1.244000   -2.231000
C      2.993700    1.529100   -2.966100
S      4.521900    1.191900   -2.173200
C      3.512500    0.650800   -0.765800
