23

C      4.870700   -0.618400   -0.420200
C      5.438100    0.509300   -0.986600
S      4.302100    1.793100   -1.185100
C      3.049500    0.847700   -0.543000
C      3.503700   -0.390600   -0.182200
C      2.549000   -1.249400    0.442100
C      2.888700   -2.469200    0.964500
S      1.533800   -3.154900    1.781500
C      0.533600   -1.792400    1.421400
C      1.191600   -0.897000    0.618900
C      0.628300    0.346200    0.133000
C      1.557200    1.240200   -0.340300
S      0.881000    2.759800   -0.597700
C     -0.689800    2.204900   -0.126600
C     -1.828900    3.019900   -0.000800
C     -3.056200    2.431500    0.287000
C     -3.186400    1.047800    0.343800
C     -4.457100    0.473300    0.510000
C     -4.631000   -0.908400    0.459000
C     -3.540100   -1.730400    0.212200
C     -2.267200   -1.174100    0.063500
C     -2.044500    0.216500    0.187900
C     -0.730400    0.812800    0.085000
