29

Si     2.927400   -1.623400    3.185100
C      3.633400   -0.849800    1.651800
C      2.671400   -0.387400    0.823500
C      2.922900    0.121000   -0.530300
C      1.855900    0.273900   -1.344800
C      0.478400    0.092800   -0.873600
C     -0.631800    0.268700   -1.697600
C     -0.615800    0.515500   -3.050600
N     -1.918400    0.652700   -3.455800
C     -2.762200    0.515000   -2.374400
C     -1.998600    0.232100   -1.263700
C     -2.432700    0.053500    0.090100
C     -3.781800    0.012200    0.636400
C     -4.996000   -0.052000   -0.070200
N     -6.235300   -0.071700    0.478800
C     -6.291600   -0.041100    1.817600
C     -5.168100   -0.006200    2.615900
C     -3.914900    0.010500    2.032000
N     -2.864600    0.032600    2.852300
C     -1.620800   -0.003100    2.310100
C     -1.285400   -0.061500    0.955100
C      0.107500   -0.162800    0.481600
C      1.278600   -0.568900    1.335100
C      1.229400   -1.266800    2.491800
C      4.202100    0.436500   -1.108200
N      4.663300    0.007700   -2.272600
C      5.911400    0.536300   -2.530200
C      6.400700    1.396400   -1.575700
S      5.264200    1.558700   -0.308300
