24

C      1.839300    1.041300   -0.819600
C      0.530500    0.537000   -0.870000
C      0.079600   -0.341700    0.114000
N     -1.251300   -0.849000    0.080400
C     -2.417100   -0.158700   -0.275100
C     -2.545100    1.281400   -0.532300
C     -1.997000    2.240600    0.322300
C     -2.171000    3.578900    0.010700
N     -2.854900    4.016800   -1.067300
C     -3.406600    3.074100   -1.860000
C     -3.284300    1.713900   -1.635700
N     -3.459100   -0.971300   -0.292800
C     -3.002500   -2.187500    0.122500
C     -3.722600   -3.379700    0.298100
C     -3.041700   -4.532600    0.699200
C     -1.664800   -4.502700    0.905800
C     -0.931700   -3.322300    0.733500
C     -1.632900   -2.158600    0.367300
C      0.948700   -0.705300    1.140900
C      2.253500   -0.189700    1.176000
C      2.746900    0.688100    0.194300
N      4.043700    1.210800    0.253600
C      4.561400    1.972700   -0.881800
C      5.048700    0.507200    1.050000
