31

C      3.217600   -2.869300   -1.178000
C      3.790400   -1.558800   -0.733100
C      2.800800   -0.738800   -0.341600
C      2.908000    0.612600    0.237500
C      1.753800    1.228500    0.601800
C      0.529400    0.537400    0.379700
N     -0.675700    1.071800    0.743500
C     -1.706800    0.225900    0.376800
C     -1.065800   -0.846500   -0.258500
C     -1.924100   -1.828800   -0.838300
C     -1.673600   -2.914400   -1.618000
O     -2.870400   -3.510800   -1.920300
C     -3.857500   -2.760600   -1.340900
C     -3.317000   -1.684600   -0.672300
C     -4.035600   -0.673400   -0.004200
C     -5.486800   -0.609900    0.123500
C     -6.173600    0.428500    0.784600
C     -5.277000    1.361200    1.284700
C     -5.607600    2.489900    1.984400
O     -4.469100    3.161100    2.323900
C     -3.407600    2.449000    1.833700
C     -3.847500    1.327700    1.174000
C     -3.118800    0.318400    0.525900
C      0.324700   -0.709700   -0.195800
C      1.505000   -1.424400   -0.547200
C      1.743000   -2.667200   -0.984100
C      4.157400    1.306200    0.464300
C      4.599000    2.414100   -0.154000
C      5.883100    2.783300    0.383800
C      6.236400    1.908700    1.336500
C      5.167000    0.862500    1.490500
