26

C     -0.826600   -3.375500   -0.789300
C     -1.710800   -2.158800   -0.829600
C     -0.972300   -1.052300   -0.639100
C     -1.392600    0.362700   -0.601300
C     -0.440200    1.314500   -0.397300
C      0.906900    0.876100   -0.239100
N      1.965000    1.737500   -0.032400
C      3.070100    0.964900    0.072700
C      2.756000   -0.380300   -0.062500
C      3.983700   -1.261000    0.050600
C      5.022600   -0.172500    0.271000
C      6.398300   -0.003300    0.476100
C      6.605500    1.367000    0.597500
N      5.393300    2.029100    0.471100
C      4.452800    1.086800    0.275800
C      1.381100   -0.436900   -0.261100
C      0.429600   -1.460800   -0.467000
C      0.536200   -2.791500   -0.547600
C     -2.748500    0.803800   -0.726400
S     -3.280100    1.619400   -2.173200
C     -4.901200    1.789700   -1.609200
C     -5.010400    1.235800   -0.372400
Si    -6.381600    1.000200    0.894600
C     -5.108500    0.128500    2.024200
C     -3.888600    0.078700    1.444900
C     -3.811100    0.673400    0.141100
