24

C      1.556600   -1.244700   -3.205100
C      2.658900   -0.740900   -2.315400
C      2.144100   -0.308200   -1.152000
C      2.830800    0.271400    0.018200
C      2.071700    0.661800    1.078200
C      0.664100    0.469100    0.984200
N     -0.208500    0.806700    1.975200
C     -1.500100    0.495600    1.585100
C     -2.704300    0.671600    2.286700
C     -3.854800    0.259600    1.632400
C     -5.234000    0.309800    2.090500
C     -6.006800   -0.200500    1.118400
C     -5.210400   -0.641300   -0.086000
C     -3.818900   -0.297700    0.351600
C     -2.627200   -0.471900   -0.342300
C     -1.433000   -0.063400    0.292500
C     -0.061000   -0.069400   -0.062200
C      0.682300   -0.484900   -1.198200
C      0.327800   -1.024200   -2.370500
C      4.240700    0.466000    0.126500
C      4.982600    1.636300    0.117300
N      6.350600    1.497900    0.258300
C      6.641500    0.221500    0.367800
S      5.319700   -0.867100    0.315600
