32

C      1.047100   -3.111800    2.147200
C      2.246300   -2.263400    1.828400
C      1.860600   -1.147600    1.185800
C      2.677000   -0.028200    0.670200
C      2.036300    0.972900    0.006000
C      0.622200    0.878800   -0.124800
N     -0.137800    1.814100   -0.761200
C     -1.469900    1.440000   -0.712700
C     -2.598200    2.096600   -1.232000
C     -3.868700    1.526200   -1.064300
C     -5.022200    2.202600   -1.597700
C     -6.355600    1.743700   -1.501900
C     -6.434700    0.535300   -0.818200
C     -7.630100   -0.104500   -0.601200
S     -7.402600   -1.568500    0.267800
C     -5.699300   -1.339500    0.350600
C     -5.307800   -0.174600   -0.268900
C     -3.962200    0.283700   -0.362700
C     -2.811400   -0.367200    0.155600
C     -1.546500    0.222700   -0.023500
C     -0.219200   -0.115000    0.336800
C      0.395800   -1.193400    1.024400
C     -0.087800   -2.313100    1.575100
C      4.098700    0.095100    0.815300
S      4.795500    0.244800    2.398800
C      6.395100    0.342400    1.793800
C      6.415100    0.280200    0.426100
N      7.566200    0.344600   -0.299300
C      7.298900    0.261300   -1.631500
C      6.021900    0.133700   -2.191300
N      4.858800    0.073600   -1.487500
C      5.095000    0.145700   -0.143200
