29

C      0.862700   -3.288600   -1.193500
C      1.883700   -2.208300   -0.968800
C      1.267200   -1.067100   -0.620500
C      1.847500    0.246400   -0.300600
C      1.008800    1.267200    0.017600
C     -0.385800    0.981000    0.032400
N     -1.340000    1.903500    0.343100
C     -2.591400    1.317100    0.268500
C     -3.855200    1.877300    0.502300
C     -4.988400    1.057700    0.357800
C     -6.276900    1.558800    0.577300
C     -7.362500    0.711000    0.422000
N     -7.258700   -0.584900    0.067900
C     -6.005300   -1.052100   -0.140000
C     -4.840400   -0.291500   -0.013400
C     -3.559600   -0.833600   -0.243100
C     -2.415500   -0.023000   -0.101900
C     -1.020400   -0.216000   -0.245400
C     -0.184700   -1.310400   -0.592700
C     -0.435800   -2.583500   -0.919300
C      3.281400    0.531700   -0.324600
C      3.951300    1.143200   -1.411100
C      5.358600    1.409200   -1.429500
C      6.236300    1.090600   -0.369700
C      5.570000    0.484400    0.696300
C      6.216800    0.082700    1.838500
S      5.121100   -0.626500    2.957600
C      3.778300   -0.393200    1.908200
C      4.153200    0.209900    0.729600
