27

C      0.173100   -3.158000    0.725800
C      1.302600   -2.200000    0.954500
C      0.885600   -0.944400    0.720200
C      1.671300    0.299300    0.744600
C      1.048100    1.453200    0.393200
C     -0.335800    1.380500    0.066100
N     -1.047400    2.479700   -0.327100
C     -2.341100    2.094100   -0.545100
C     -3.327700    3.002800   -1.011200
C     -4.573000    2.512300   -1.170900
C     -4.868400    1.123300   -0.825300
C     -6.104400    0.590100   -0.881100
Si    -6.099100   -1.162900   -0.244000
C     -4.267800   -0.999500    0.081700
C     -3.801600    0.198800   -0.313700
C     -2.475200    0.741100   -0.234500
C     -1.176800    0.268700    0.064900
C     -0.547700   -0.975400    0.361900
C     -0.952500   -2.250900    0.321300
C      3.066100    0.374000    1.042000
S      3.620400    0.939800    2.590200
C      5.287000    0.727900    2.185000
C      5.417000    0.237700    0.914800
C      6.582700   -0.094800    0.155400
C      6.335200   -0.562300   -1.088100
Si     4.447900   -0.633500   -1.446500
C      4.158400    0.043000    0.289900
