20

C     -1.263500   -3.055700   -1.348800
C     -0.169500   -2.093100   -0.971700
C     -0.704900   -0.980700   -0.440900
C     -0.040100    0.234300    0.070900
C     -0.820300    1.243700    0.548100
C     -2.230700    1.047100    0.527700
N     -3.136100    1.963900    0.979800
C     -4.405300    1.450300    0.811600
C     -4.302600    0.191000    0.247600
C     -2.930500   -0.054800    0.073400
C     -2.168100   -1.130900   -0.440000
C     -2.510800   -2.316300   -0.956100
C      1.376800    0.443100    0.090300
C      2.131600    1.230700   -0.759400
C      3.517000    1.186100   -0.422300
S      4.965900    1.918700   -1.062800
C      5.902500    1.126800    0.134200
C      5.167100    0.338800    0.989400
C      3.780200    0.384200    0.652100
S      2.332900   -0.345500    1.289600
