32

C     -2.300800   -2.084900   -2.541600
C     -2.946100   -1.796600   -1.222800
C     -2.097900   -1.091600   -0.459300
C     -2.217600   -0.715200    0.930800
C     -1.114000   -0.189600    1.505600
C      0.160100    0.078200    0.787400
C      0.233300   -0.058300   -0.582000
C      1.445900    0.460500   -1.297500
C      1.505000    0.871100   -2.643300
C      0.476800    1.081700   -3.538400
O      0.954900    1.506200   -4.755200
C      2.313300    1.641800   -4.639900
C      2.636900    1.303600   -3.366400
C      3.871900    1.377100   -2.692500
C      5.139700    1.764600   -3.106400
C      5.885400    1.705700   -1.945700
O      5.121900    1.321300   -0.877700
C      3.846400    1.100500   -1.341600
C      2.691700    0.705100   -0.625100
C      2.657200    0.677600    0.835400
C      3.612400    0.910400    1.750100
C      3.019100    0.861300    3.123600
C      1.577900    0.561900    2.837400
C      1.381000    0.456800    1.510900
C     -0.872900   -0.803700   -1.203500
C     -0.956700   -1.433300   -2.388900
C     -3.424500   -0.903400    1.751500
C     -4.500900   -0.016000    1.630600
C     -5.650200   -0.194700    2.402700
C     -5.731300   -1.261600    3.297000
C     -4.665100   -2.151900    3.420200
C     -3.514600   -1.974900    2.649200
