31

C     -1.648000    3.093200    1.890900
C     -2.525500    1.944300    1.512000
C     -1.779500    0.977300    0.955300
C     -2.175900   -0.355200    0.548800
C     -1.171400   -1.179400    0.177400
C      0.263100   -0.795000    0.108100
C      0.653700    0.507200    0.324000
C      2.082200    0.918600    0.027900
C      2.449600    2.252800   -0.149100
N      3.693300    2.741100   -0.369300
C      4.661200    1.804000   -0.452600
C      6.046800    1.997500   -0.654900
C      6.629900    0.753100   -0.698800
N      5.635700   -0.178500   -0.536700
C      4.413300    0.433600   -0.374900
C      3.104300   -0.037500   -0.178100
C      2.719000   -1.445800   -0.274300
C      3.422700   -2.569400   -0.497600
C      2.499900   -3.748200   -0.569900
C      1.162900   -3.115400   -0.355900
C      1.300100   -1.787800   -0.189700
C     -0.381200    1.403400    0.876700
C     -0.292100    2.612500    1.461000
C     -3.506800   -0.852700    0.512900
S     -4.108200   -2.151800    1.500500
C     -5.717200   -2.052900    0.845900
C     -5.724300   -1.062400   -0.068400
C     -6.588200   -0.404600   -0.977600
C     -5.824600    0.588700   -1.628400
N     -4.505300    0.599800   -1.179600
C     -4.528200   -0.406100   -0.254300
