31

C      2.197900   -3.053600   -1.518300
C      3.161900   -2.038800   -0.994500
C      2.486300   -0.986600   -0.503700
C      3.012000    0.142300    0.243700
C      2.109600    0.928200    0.871900
C      0.651000    0.720000    0.735200
C     -0.297600    1.436700    1.476000
C      0.043800    2.302500    2.493300
S     -1.323000    3.017300    3.221100
C     -2.384300    2.171600    2.174400
C     -1.739400    1.329500    1.294500
C     -2.388100    0.527100    0.283300
C     -3.804600    0.368100    0.019600
Si    -5.359600    0.938500    0.980600
C     -6.463600    0.152700   -0.294700
C     -5.770900   -0.440600   -1.279000
C     -4.317900   -0.335300   -1.106900
C     -3.394100   -0.854000   -2.027500
N     -3.691400   -1.467000   -3.186800
S     -2.255500   -1.787300   -3.934300
N     -1.202900   -1.203100   -2.808800
C     -1.909900   -0.750000   -1.755300
C     -1.373200   -0.157800   -0.532800
C      0.060300   -0.181800   -0.205400
C      1.047700   -1.181400   -0.712800
C      0.875200   -2.416100   -1.219000
C      4.397000    0.464800    0.412200
C      5.160300    0.467400    1.568900
C      6.512400    0.856200    1.342700
C      6.747900    1.145000    0.018700
S      5.348300    0.947800   -0.941200
