29

C     -1.785500   -2.973200   -1.741500
C     -2.810600   -1.957100   -1.352100
C     -2.212000   -0.912600   -0.756100
C     -2.830900    0.293000   -0.231700
C     -2.013500    1.214400    0.321500
C     -0.546700    1.031600    0.390100
C      0.242200    2.049200    0.979200
N     -0.208400    3.205100    1.501200
S      1.109000    4.034000    2.051900
N      2.303900    2.970100    1.660600
C      1.737100    1.900800    1.071000
C      2.401200    0.723600    0.564900
C      3.811600    0.549600    0.635300
N      4.651000    1.465200    1.178400
C      5.982400    1.235600    1.212000
C      6.570700    0.094600    0.715700
C      5.736800   -0.858600    0.155200
C      4.350100   -0.632500    0.113600
C      3.480200   -1.554700   -0.435300
N      2.144100   -1.390500   -0.501700
C      1.566600   -0.276700   -0.019200
C      0.147200   -0.120700   -0.100300
C     -0.763100   -1.140600   -0.705500
C     -0.513500   -2.334700   -1.273500
C     -4.237400    0.558200   -0.222400
C     -5.228200   -0.057700    0.524000
C     -6.528300    0.460700    0.257400
C     -6.498900    1.454500   -0.693300
S     -4.915200    1.755300   -1.260500
