31

C     -0.438900    2.260100   -2.857700
C     -1.551300    1.874600   -1.936300
C     -1.078200    1.084100   -0.959400
C     -1.815100    0.478400    0.138300
C     -1.130600   -0.294100    1.009100
C      0.320400   -0.543100    0.864000
C      0.977400   -1.370800    1.810800
N      0.423500   -1.985800    2.879200
S      1.640200   -2.831300    3.649000
N      2.935000   -2.450800    2.667100
C      2.398700   -1.669200    1.744000
C      3.116900   -1.073300    0.656300
C      4.503300   -1.305700    0.509200
S      5.793600   -2.182000    1.302200
C      6.917600   -1.629400    0.137700
C      6.367700   -0.814400   -0.822000
C      4.969300   -0.636600   -0.592900
S      3.709100    0.253300   -1.413600
C      2.497900   -0.260700   -0.276800
C      1.104400    0.019200   -0.195000
C      0.365200    0.875600   -1.150800
C      0.738300    1.558600   -2.247600
C     -3.244100    0.686800    0.381300
C     -3.802300    1.895800    0.808500
N     -5.128100    2.167200    1.044900
C     -6.078500    1.202000    0.869400
C     -5.661800   -0.073300    0.436800
N     -6.448600   -1.137400    0.208700
S     -5.443800   -2.364500   -0.282200
N     -3.972700   -1.601500   -0.228800
C     -4.199600   -0.340500    0.183300
