31

C     -1.701000   -3.351700    1.200500
C     -2.668100   -2.431100    0.517500
C     -2.012700   -1.365500    0.028400
C     -2.531700   -0.223100   -0.710400
C     -1.642800    0.720500   -1.102100
C     -0.183600    0.630000   -0.819900
C      0.655100    1.658500   -1.276700
C      2.026400    1.564700   -1.000300
N      3.051600    2.434000   -1.335900
C      4.265000    1.975400   -0.873600
C      5.574800    2.517400   -0.973400
C      6.680000    1.845300   -0.406000
C      6.319000    0.658800    0.219600
C      7.186900   -0.198100    0.854400
N      6.442100   -1.258900    1.344600
C      5.105200   -1.094900    1.033300
C      5.046500    0.080100    0.346600
C      3.953800    0.784000   -0.236900
C      2.583600    0.493500   -0.292000
C      1.732900   -0.534200    0.162000
C      0.355600   -0.464300   -0.101900
C     -0.592200   -1.498800    0.337600
C     -0.392100   -2.639900    1.017400
C     -3.911600   -0.005700   -1.014200
S     -4.498100   -0.071700   -2.654500
C     -6.133300    0.244400   -2.194500
C     -6.227700    0.387000   -0.838800
C     -7.295000    0.655500    0.166400
C     -6.472400    0.640700    1.458500
C     -5.165000    0.403400    1.206100
C     -4.978200    0.241900   -0.191900
