33

C      3.048000    2.362100    2.169600
C      3.940700    1.492000    1.337000
C      3.205900    0.665600    0.573000
C      3.626000   -0.347200   -0.396600
C      2.636700   -1.002400   -1.056300
C      1.191300   -0.750900   -0.831000
C      0.242500   -1.443800   -1.578900
C     -1.140400   -1.219300   -1.375700
C     -2.094400   -1.876700   -2.219400
N     -1.820000   -2.745000   -3.211900
S     -3.263400   -3.155400   -3.908100
N     -4.305000   -2.256600   -2.989800
C     -3.562000   -1.603300   -2.075700
C     -4.034500   -0.731600   -1.057900
C     -5.473800   -0.407800   -1.024000
C     -5.985900    0.387900   -0.074500
C     -5.138300    0.862600    0.991500
C     -5.616800    1.514100    2.068500
Si    -4.291600    1.755800    3.349400
C     -3.114400    0.850100    2.203500
C     -3.684400    0.548800    1.015400
C     -3.064900   -0.175200   -0.153800
C     -1.635800   -0.325900   -0.376100
C     -0.629000    0.401800    0.307600
C      0.749000    0.196000    0.109300
C      1.790100    0.940000    0.831000
C      1.680900    1.911800    1.751800
C      5.036700   -0.714100   -0.703500
N      5.951700   -0.548500    0.256300
C      7.186500   -0.911700   -0.078900
N      7.567700   -1.406800   -1.252300
C      6.575500   -1.530100   -2.128100
N      5.301400   -1.210700   -1.919300
