25

C      2.000100    3.528500    0.096300
C      2.951200    2.368500    0.076000
C      2.264800    1.218700   -0.028100
C      2.757500   -0.151500   -0.079700
C      1.838100   -1.143100   -0.155200
C      0.373000   -0.887200   -0.201800
C     -0.511600   -1.974700   -0.287100
C     -1.886900   -1.801400   -0.337200
N     -2.679000   -2.882800   -0.417800
C     -4.027300   -2.739900   -0.468500
C     -4.616200   -1.473100   -0.438100
C     -5.958700   -1.003700   -0.474300
C     -5.923800    0.369900   -0.413000
N     -4.610600    0.752400   -0.340800
C     -3.787500   -0.353100   -0.354200
C     -2.381200   -0.480300   -0.300200
C     -1.520500    0.634200   -0.214800
C     -0.141100    0.431200   -0.165100
C      0.836900    1.522300   -0.071800
C      0.663100    2.852300   -0.003700
C      4.131200   -0.538700   -0.049700
C      4.853400   -1.190400    0.937600
N      6.185300   -1.438600    0.663300
C      6.468000   -0.975400   -0.533000
S      5.182000   -0.228900   -1.383400
