31

C      2.311100    0.943700    3.521400
C      3.219600    0.796700    2.345800
C      2.493500    0.576700    1.237600
C      2.976400    0.378200   -0.119500
C      2.052500    0.183600   -1.085400
C      0.592600    0.163100   -0.813900
C     -0.264200   -0.045300   -1.884100
C     -1.643300   -0.077500   -1.685600
C     -2.226000    0.097100   -0.403400
C     -1.345300    0.309000    0.683100
S     -2.253000    0.494500    2.142900
C     -3.750900    0.306200    1.384700
C     -4.970700    0.365700    2.130300
C     -6.130800    0.208200    1.468800
C     -6.121600   -0.015400    0.033300
C     -7.241200   -0.181400   -0.696500
Si    -6.833700   -0.442600   -2.494200
C     -5.018700   -0.289400   -2.054600
C     -4.839900   -0.075700   -0.736100
C     -3.614200    0.099100    0.018800
C      0.069200    0.346000    0.495500
C      1.062800    0.565100    1.575300
C      0.956300    0.777100    2.899900
C      4.344200    0.362100   -0.508600
S      5.135400    1.681800   -1.294000
C      6.650100    0.862100   -1.358800
C      6.490900   -0.353100   -0.789300
C      7.369000   -1.439400   -0.561100
C      6.735000   -2.512200    0.076700
S      5.029400   -2.300400    0.453200
C      5.222400   -0.669600   -0.302700
