27

C      0.587600    0.805600   -3.233600
C      1.624500    0.241800   -2.307700
C      1.044300   -0.148500   -1.161000
C      1.651900   -0.752500    0.018700
C      0.840100   -1.070000    1.055700
C     -0.629200   -0.836300    1.032800
C     -1.403000   -1.200300    2.142300
C     -2.790100   -0.990700    2.161600
C     -3.407600   -0.403600    1.044700
C     -4.710500   -0.041600    0.687200
C     -6.104600   -0.036700    1.176000
C     -6.806500    0.605900   -0.037000
C     -5.937600    0.905500   -1.032100
C     -4.669400    0.504200   -0.572200
O     -3.408600    0.514900   -1.049200
C     -2.622100   -0.042200   -0.063100
C     -1.240000   -0.243300   -0.102800
C     -0.391500    0.115600   -1.239000
C     -0.671600    0.669900   -2.429400
C      3.050800   -0.991700    0.181400
S      3.705000   -2.599000    0.057000
C      5.326600   -2.071100    0.336200
C      5.369900   -0.715500    0.511900
C      6.472900    0.159700    0.764600
C      6.145000    1.465000    0.885300
Si     4.253800    1.733900    0.672000
C      4.082600   -0.126700    0.418100
