28

C     -0.882100   -1.977300   -2.987700
C     -1.971400   -1.419900   -2.133200
C     -1.439300   -0.831700   -1.049300
C     -2.128600   -0.067100   -0.026300
C     -1.362400    0.576300    0.879500
C      0.120200    0.470900    0.910200
C      0.788300    1.212000    1.893300
C      2.164900    1.112200    2.030500
C      2.880300    0.219500    1.218100
C      4.270700    0.092800    1.420200
O      5.030900    0.794200    2.316100
C      6.310400    0.360800    2.182500
C      6.391900   -0.615700    1.218200
C      5.075000   -0.795900    0.719800
C      4.471600   -1.626400   -0.231100
C      3.085600   -1.507900   -0.454700
C      2.254200   -0.573200    0.219300
C      0.848000   -0.379400    0.016200
C      0.021500   -0.979900   -1.069200
C      0.349400   -1.597100   -2.219800
C     -3.542400    0.100500    0.074900
S     -4.566200   -1.205000    0.585100
C     -6.007100   -0.267400    0.463200
C     -5.716500    0.998600    0.045700
S     -6.781800    2.415800   -0.267400
C     -5.291200    3.248100   -0.694400
C     -4.113200    2.498000   -0.598000
C     -4.348900    1.168500   -0.158500
