28

C      1.637200    2.733000   -1.377700
C      2.687000    1.751200   -0.963600
C      2.108900    0.697300   -0.364500
C      2.750300   -0.408600    0.327100
C      1.938600   -1.239400    1.017500
C      0.458300   -1.097900    1.050500
C     -0.257700   -1.945100    1.901700
C     -1.646200   -1.874300    1.958600
C     -2.351600   -1.036200    1.085600
C     -3.832500   -0.907900    1.145900
S     -4.812400   -1.577500    2.378800
C     -6.240700   -0.922400    1.700500
C     -5.988900   -0.202900    0.553100
C     -4.602900   -0.193900    0.241200
C     -3.944300    0.401200   -0.868000
C     -4.458800    0.933900   -1.985500
C     -3.352300    1.212200   -2.953500
C     -2.143600    0.734700   -2.203700
C     -2.480900    0.342000   -0.960900
C     -1.637600   -0.253800    0.118000
C     -0.229000   -0.165600    0.219700
C      0.652300    0.852800   -0.401200
C      0.378100    2.066100   -0.912800
C      4.173500   -0.657700    0.343500
C      4.837300   -1.627600   -0.306600
C      6.242800   -1.528500   -0.007600
C      6.450100   -0.501200    0.828800
C      5.142400    0.171300    1.144600
