29

Si     1.870400   -3.210700    1.958600
C      3.005600   -2.119100    0.983800
C      2.355100   -1.069400    0.437000
C      3.032800    0.042700   -0.235800
C      2.290500    1.116500   -0.581500
C      0.840700    1.156700   -0.366600
C      0.069000    2.271400   -0.690500
C      0.482200    3.504500   -1.130000
O     -0.600000    4.315100   -1.324000
C     -1.713400    3.588200   -1.012800
C     -1.349400    2.325600   -0.616400
C     -2.186700    1.249500   -0.256000
C     -3.602800    1.310100   -0.252900
C     -4.354300    0.167700    0.029200
C     -5.755000    0.182900    0.038500
C     -6.431800   -0.998100    0.296100
N     -5.820400   -2.174700    0.537100
C     -4.466800   -2.165600    0.522500
C     -3.679700   -1.035200    0.283900
C     -2.263800   -1.071000    0.285200
C     -1.443100    0.063700    0.071600
C      0.040800    0.060200    0.115500
C      0.879900   -1.057700    0.675200
C      0.484300   -2.029800    1.526800
C      4.436300    0.072600   -0.545500
N      5.076300   -0.762400   -1.346000
C      6.421200   -0.458500   -1.395700
C      6.819500    0.603800   -0.618600
S      5.470200    1.251700    0.209600
