28

C     -0.844000   -3.106200   -1.530700
C     -1.822300   -2.031900   -1.163000
C     -1.171300   -1.000600   -0.601200
C     -1.716000    0.255200   -0.090100
C     -0.853200    1.162400    0.425400
C      0.546500    0.845700    0.461900
S      1.688800    1.929400    1.103200
C      2.998500    0.862900    0.790000
C      4.354800    1.079600    1.066300
C      5.052400    2.257900    1.693600
C      6.486800    1.789600    1.668800
C      6.624000    0.567200    1.131100
C      5.302600    0.100300    0.745500
C      4.937300   -1.087200    0.158100
C      3.580500   -1.305500   -0.119000
C      2.576500   -0.336700    0.189200
C      1.146900   -0.325300    0.006800
C      0.266200   -1.307100   -0.556600
C      0.467200   -2.520300   -1.090000
C     -3.134500    0.609400   -0.119600
C     -3.722600    1.450300   -1.094700
C     -5.115700    1.781800   -1.123300
C     -6.059700    1.307300   -0.186100
C     -5.474100    0.476900    0.770500
C     -6.195400   -0.104300    1.783600
S     -5.188400   -1.065300    2.792500
C     -3.783600   -0.698400    1.870000
C     -4.072400    0.133800    0.812900
