27

C     -0.793400    3.328100    0.575400
C     -1.766300    2.302200    0.060600
C     -1.115900    1.162800   -0.229100
C     -1.635600   -0.105100   -0.763100
C     -0.754900   -1.117600   -0.984400
C      0.638100   -0.907200   -0.695300
S      1.829700   -2.130600   -0.947400
C      3.073600   -1.059200   -0.371000
C      4.473900   -1.025900   -0.141900
C      5.558400   -1.904500   -0.288900
C      6.833800   -1.449300    0.072000
C      7.023700   -0.155500    0.565400
C      5.948300    0.727600    0.715500
C      4.688000    0.253900    0.350300
O      3.538900    0.981800    0.433500
C      2.558300    0.147400   -0.018600
C      1.174700    0.270400   -0.189500
C      0.307100    1.357200    0.063200
C      0.515800    2.593700    0.529800
C     -3.016100   -0.362100   -1.027600
S     -3.603800   -0.532300   -2.659200
C     -5.237400   -0.781400   -2.155600
C     -5.304000   -0.724000   -0.798600
C     -6.324100   -0.844100    0.176600
C     -5.781700   -0.692300    1.406600
C     -4.270900   -0.445300    1.324000
C     -4.069300   -0.486400   -0.153900
