32

Si     0.488200   -3.799400    0.668000
C      1.761500   -2.453900    0.507000
C      1.194800   -1.265900    0.207300
C      1.947500   -0.070600   -0.171000
C      1.272200    0.972900   -0.696400
C     -0.193800    0.971400   -0.771800
C     -0.925200    1.999100   -1.367200
C     -0.451600    3.085100   -2.060600
O     -1.495000    3.846700   -2.501900
C     -2.645400    3.245800   -2.078600
C     -2.348700    2.103500   -1.376400
C     -3.248700    1.229900   -0.729200
C     -4.695100    1.429900   -0.725300
C     -5.591600    0.637500    0.008900
C     -4.888200   -0.290300    0.754900
C     -5.438600   -1.125400    1.689900
O     -4.444000   -1.805800    2.327600
C     -3.258100   -1.398500    1.784100
C     -3.472800   -0.520300    0.748000
C     -2.503300    0.160800   -0.051700
C     -1.038900   -0.032700   -0.195200
C     -0.294600   -1.282400    0.152800
C     -0.811700   -2.526100    0.245100
C      3.409600    0.045100   -0.100300
C      4.249600   -0.101100   -1.226100
C      5.658900   -0.006100   -1.155800
C      6.351400    0.239400    0.042700
C      5.560400    0.390800    1.208000
N      6.028700    0.626400    2.443200
S      4.701700    0.718900    3.437000
N      3.476500    0.466800    2.349100
C      4.052600    0.292800    1.146000
