24

C      2.797900   -1.916700   -2.018500
C      1.501900   -1.375500   -1.480900
C      1.751100   -0.489500   -0.502800
C      0.816400    0.290600    0.312100
C      1.324700    1.143400    1.237200
C      2.750000    1.232400    1.385700
S      3.505100    2.263100    2.521200
C      5.070200    1.754800    2.036600
C      5.029700    0.816300    1.026700
C      3.693800    0.519000    0.655600
C      3.202900   -0.380800   -0.332100
C      3.825400   -1.194900   -1.193600
C     -0.637300    0.223900    0.181500
C     -1.441300    1.213000   -0.447500
C     -2.862800    1.089100   -0.558100
Si    -4.090200    2.290700   -1.355400
C     -5.488300    1.099300   -0.893000
C     -5.065100   -0.005100   -0.249300
C     -3.621600   -0.016500   -0.062900
C     -2.819200   -0.969700    0.544800
C     -3.172400   -2.153800    1.132700
O     -2.050800   -2.779400    1.608300
C     -0.975100   -1.982300    1.319700
C     -1.396400   -0.856000    0.660600
