32

C     -2.727400    3.142200   -2.289900
C     -1.467900    2.501200   -1.793200
C     -1.758100    1.477400   -0.976100
C     -0.918200    0.522100   -0.318800
C     -1.532400   -0.623600    0.181500
N     -0.530400   -1.493500    0.494900
C      0.698000   -0.887400    0.354600
C      1.966300   -1.438100    0.551500
C      3.089700   -0.619000    0.377400
C      4.401500   -1.257100    0.511900
C      5.025700   -1.814000    1.613200
C      6.279700   -2.319700    1.192300
C      6.387800   -2.073300   -0.157200
N      5.243300   -1.438400   -0.562800
C      2.941600    0.762800    0.107400
C      4.041400    1.653400    0.038700
C      3.872400    3.024600   -0.158100
C      2.595000    3.551300   -0.264300
C      1.489600    2.703000   -0.204900
C      1.634500    1.304900   -0.065900
C      0.487400    0.440600   -0.032900
C     -2.973300   -0.841100    0.251500
C     -3.665000   -1.892500    0.859100
C     -3.203100   -2.984400    1.549400
O     -4.254300   -3.751300    1.977400
C     -5.405600   -3.135900    1.575300
C     -5.092200   -1.989500    0.897500
C     -5.993400   -1.080700    0.361600
C     -5.312400    0.003700   -0.241700
C     -3.875500    0.135700   -0.300900
C     -3.223500    1.298000   -0.959000
C     -3.790500    2.270600   -1.694600
