32

C      0.901200   -3.743300    1.004100
C      1.928000   -2.669000    0.821500
C      1.340900   -1.528700    0.430800
C      1.871200   -0.225800    0.187500
C      0.959200    0.828100    0.043800
N      1.684100    1.993400    0.049300
C      3.016600    1.698100    0.054700
C      4.016600    2.705800    0.078600
C      5.297500    2.284600    0.070800
C      5.603400    0.857500   -0.015400
C      6.853700    0.368500   -0.128000
Si     6.821200   -1.482800   -0.363900
C      4.956800   -1.421900   -0.299000
C      4.514000   -0.173900   -0.060000
C      3.169900    0.317700    0.042800
C     -0.494400    0.674600   -0.018600
C     -1.464100    1.655300   -0.276100
C     -1.304200    2.993700   -0.551900
N     -2.559100    3.542900   -0.721100
C     -3.523900    2.574900   -0.580000
C     -2.878400    1.387300   -0.331300
C     -3.478000    0.133300   -0.146700
C     -2.498100   -0.866200    0.098400
C     -1.078800   -0.628800    0.155600
C     -0.119300   -1.736500    0.409400
C     -0.379200   -3.019300    0.720200
C     -4.908600   -0.129500   -0.208000
C     -5.600800   -0.668300    0.882800
C     -6.969200   -0.917200    0.793000
C     -7.613600   -0.622000   -0.396100
N     -6.991200   -0.108300   -1.476800
C     -5.659600    0.119700   -1.357000
