31

C     -1.349300   -2.252500   -2.841500
C     -2.485000   -1.584400   -2.129200
C     -2.021500   -0.721100   -1.214600
C     -2.670400    0.152700   -0.288900
C     -1.854900    0.936300    0.533300
N     -2.668300    1.700000    1.334700
C     -3.997300    1.441600    1.071100
C     -5.150300    1.995300    1.657200
C     -6.416200    1.577400    1.226700
C     -6.455500    0.602900    0.207300
N     -7.580100    0.085900   -0.326300
S     -7.095400   -1.018200   -1.483900
N     -5.435000   -0.887800   -1.356600
C     -5.268000    0.019900   -0.410100
C     -3.991200    0.482700    0.066000
C     -0.380200    0.945500    0.540300
C      0.368200    1.757400    1.399400
C      1.765500    1.719700    1.363600
C      2.436400    0.875600    0.470400
C      1.690600    0.062200   -0.393700
C      0.289400    0.086000   -0.368600
C     -0.546500   -0.753800   -1.254800
C     -0.151100   -1.635100   -2.190000
C      3.896300    0.819400    0.449600
S      4.816400    2.230500    0.046400
C      6.328900    1.409500    0.206600
C      6.133000    0.101600    0.557500
C      7.072300   -0.949100    0.803800
C      6.520600   -2.135100    1.142700
Si     4.606100   -2.027100    1.187400
C      4.754800   -0.214600    0.688500
