29

C     -0.954400   -3.338600   -1.351000
C     -1.926100   -2.268900   -0.946300
C     -1.270200   -1.204100   -0.467400
C     -1.704100    0.052300    0.041300
C     -0.709200    0.931800    0.458700
O     -1.215600    2.102900    0.928100
C     -2.575700    1.999400    0.820200
C     -3.496400    3.004200    1.200000
C     -4.879700    2.791000    1.044700
C     -5.160900    1.542400    0.505200
C     -6.419500    1.060300    0.242200
O     -6.336400   -0.201700   -0.285800
C     -5.004400   -0.533500   -0.362500
C     -4.279400    0.513100    0.113200
C     -2.885100    0.754800    0.281200
C      0.736100    0.728700    0.441200
C      1.643800    1.687200    0.887700
C      3.016600    1.421600    0.840400
C      3.521700    0.199800    0.349400
C      2.584200   -0.756800   -0.097700
C      1.203800   -0.511100   -0.059100
C      0.182700   -1.487000   -0.518200
C      0.369200   -2.716800   -1.027200
C      4.976300   -0.069100    0.304500
N      5.802100    0.886500    0.746300
C      7.095700    0.582200    0.679000
N      7.610700   -0.555700    0.223400
C      6.697400   -1.429700   -0.188100
N      5.378600   -1.252000   -0.175300
