28

Si     1.411600   -3.712000   -1.977200
C      0.290600   -2.503400   -1.112600
C      0.975400   -1.449900   -0.618100
C      0.371300   -0.334400    0.118100
C      1.173500    0.659600    0.561300
C      2.626100    0.644900    0.335600
C      3.498700    1.654500    0.786300
C      3.131700    2.777100    1.493600
S      4.482300    3.777100    1.864700
C      5.577900    2.713200    1.081000
C      4.924100    1.627600    0.552800
C      5.600600    0.621100   -0.132900
C      4.727400   -0.393900   -0.585700
C      3.304900   -0.400000   -0.371800
C      2.438900   -1.499600   -0.872700
C      2.847000   -2.588200   -1.559300
C     -1.030400   -0.196700    0.381100
C     -2.024000    0.262700   -0.468600
C     -3.266200    0.222900    0.178100
C     -3.288700   -0.246800    1.481600
C     -4.485500   -0.342600    2.260800
C     -5.747200    0.039200    1.750900
C     -5.655000    0.497500    0.446300
C     -6.693200    0.942500   -0.336200
O     -6.225200    1.318000   -1.574300
C     -4.866300    1.110300   -1.584300
C     -4.522100    0.615500   -0.366300
S     -1.672400   -0.661500    1.921100
