31

C      2.075800   -3.582600    1.125200
C      0.647000   -3.183100    0.925900
C      0.586500   -1.875000    0.635600
C     -0.578000   -1.026000    0.544900
C     -1.990400   -1.410000    0.536900
C     -2.865100   -0.385700    0.470100
Si    -1.959000    1.265400    0.423000
C     -0.358700    0.312600    0.489500
C      0.977500    0.932100    0.439800
N      1.005900    2.281900    0.486900
C      2.213800    2.879500    0.391700
C      3.420100    2.234200    0.142000
C      4.615700    3.027700    0.015400
C      5.884700    2.525100   -0.322000
C      5.824900    1.166400   -0.595200
C      6.923900    0.487800   -1.062900
S      6.525800   -1.130300   -1.461000
C      4.881800   -0.903100   -1.013200
C      4.647200    0.336400   -0.461300
C      3.368300    0.804300    0.006900
C      2.139000    0.130600    0.303300
C      1.941000   -1.318200    0.555800
C      2.802600   -2.285400    0.917400
C     -4.272900   -0.509000    0.450600
S     -5.093500   -1.478500    1.652100
C     -6.659300   -1.152200    1.009600
C     -6.539900   -0.340800   -0.073800
C     -7.434200    0.242400   -1.004300
C     -6.729100    0.963900   -1.904500
C     -5.226900    0.907200   -1.608900
C     -5.213800    0.032500   -0.396200
