27

C     -0.157100   -2.898500   -2.519900
C      1.058800   -2.218400   -1.967200
C      0.683000   -1.235300   -1.134900
C      1.518000   -0.359500   -0.324500
C      2.979800   -0.288100   -0.255900
C      3.481900    0.630600    0.599800
Si     2.068700    1.551400    1.477200
C      0.894300    0.514300    0.506300
C     -0.523800    0.585700    0.550500
O     -1.260500    1.418100    1.358200
C     -2.579100    1.219100    1.071700
C     -3.651800    1.898000    1.694000
C     -4.976200    1.635600    1.296400
C     -5.045700    0.703700    0.268600
C     -6.214900    0.304600   -0.333600
N     -5.881600   -0.592000   -1.331000
C     -4.510500   -0.770100   -1.379500
C     -4.004600    0.005100   -0.380000
C     -2.675300    0.264100    0.072600
C     -1.395100   -0.195200   -0.238200
C     -0.793200   -1.171500   -1.089900
C     -1.281300   -2.149500   -1.863300
C      4.868700    0.833000    0.835000
C      5.905800   -0.085800    0.735400
C      7.186900    0.463300    1.030800
C      7.108900    1.798000    1.345200
S      5.506000    2.376200    1.282100
