27

C     -1.990300    3.541500   -1.275600
C     -0.572300    3.084500   -1.088500
C     -0.565600    1.818700   -0.646100
C      0.547700    0.961600   -0.325100
C      1.975600    1.185400   -0.375800
C      2.639300    0.082300    0.022400
C      1.616300   -0.988900    0.377100
C      0.315200   -0.296200    0.110000
C     -1.044800   -0.839700    0.273500
C     -1.292600   -2.164400    0.731700
N     -0.391400   -3.108700    1.079200
S     -1.244900   -4.472700    1.539200
N     -2.819200   -3.941100    1.322800
C     -2.640500   -2.702000    0.893300
C     -3.727400   -1.844100    0.572300
C     -5.100800   -2.079000    0.627600
C     -5.653000   -0.889200    0.201100
O     -4.684500    0.027300   -0.100300
C     -3.468000   -0.567100    0.131100
C     -2.186700   -0.027000   -0.032600
C     -1.944600    1.343600   -0.506900
C     -2.780300    2.330600   -0.867900
C      4.053200   -0.028300    0.088000
C      4.873200   -1.075800    0.469500
C      6.217900   -0.651500    0.346900
C      6.193000    0.645900   -0.106600
N      4.880700    1.014700   -0.260500
