28

C     -0.996700    3.796400   -0.133900
C     -2.364500    3.197700    0.002300
C     -2.268100    1.860200    0.068800
C     -3.321600    0.873400    0.202700
C     -4.760000    1.150400    0.296100
C     -5.555500    0.075000    0.415400
Si    -4.539500   -1.477700    0.424300
C     -2.981300   -0.451100    0.250000
C     -1.573800   -0.916300    0.169400
C     -1.084000   -2.241000    0.205400
C     -1.749700   -3.444500    0.322000
O     -0.876300   -4.507300    0.314600
C      0.387800   -4.002800    0.191300
C      0.267400   -2.653500    0.126000
C      1.270100   -1.674800   -0.003600
C      2.652100   -1.765300   -0.103000
C      3.067900   -0.444900   -0.207200
O      1.980800    0.401600   -0.171700
C      0.849200   -0.365500   -0.044000
C     -0.500600    0.050500    0.035000
C     -0.863100    1.474100   -0.016100
C     -0.114700    2.584000   -0.133700
C      4.377900    0.177700   -0.340400
N      4.432000    1.509300   -0.417900
C      5.662900    1.993200   -0.537500
N      6.785000    1.277500   -0.582800
C      6.595300   -0.037300   -0.496000
N      5.423800   -0.653900   -0.373600
