25

C     -1.940200   -2.799000   -1.902900
C     -3.200900   -2.215600   -1.352600
C     -2.908800   -1.140200   -0.605100
C     -3.815600   -0.272900    0.113900
C     -5.276500   -0.379500    0.185900
C     -5.895800    0.556900    0.925500
Si    -4.655600    1.742300    1.655100
C     -3.283800    0.768600    0.811800
C     -1.825300    1.067200    0.879000
C     -1.325500    2.152100    1.611300
C      0.045000    2.426200    1.670300
C      0.951700    1.602400    0.984100
C      2.369500    1.622300    0.855100
C      2.745000    0.564000    0.053800
N      1.580300   -0.082000   -0.294600
C      0.467600    0.516200    0.249100
C     -0.910400    0.218500    0.173400
C     -1.458400   -0.920900   -0.594300
C     -0.890300   -1.881100   -1.346500
C      4.037900    0.086000   -0.421400
C      5.237600    0.705900   -0.095500
C      6.420900    0.171700   -0.600000
C      6.369000   -0.957400   -1.408700
C      5.128900   -1.510000   -1.682000
N      3.963200   -1.016800   -1.208900
