26

C     -3.492800   -2.480400   -1.983700
C     -4.363800   -1.492300   -1.251500
C     -3.593000   -0.621400   -0.582000
C     -3.965000    0.510500    0.266700
C     -5.304800    0.991700    0.608700
C     -5.340400    2.066900    1.419900
Si    -3.593800    2.633300    1.875000
C     -2.967500    1.245800    0.837500
C     -1.601600    0.913100    0.607800
O     -0.484700    1.560500    1.114200
C      0.583200    0.874400    0.613000
C      1.976800    0.918600    0.668300
C      2.356500   -0.153400   -0.135300
O      1.241000   -0.807700   -0.647000
C      0.169900   -0.136900   -0.157200
C     -1.213200   -0.161000   -0.197000
C     -2.184400   -0.967700   -0.821300
C     -2.103100   -2.033400   -1.624500
C      3.683600   -0.597600   -0.450000
S      4.026200   -1.958600   -1.476500
C      5.751200   -1.789900   -1.319800
C      5.984400   -0.733200   -0.514300
C      7.057000   -0.021600    0.043500
C      6.459700    0.992400    0.802700
O      5.077200    0.984500    0.773500
C      4.865700   -0.087400   -0.043200
