27

C     -3.478400    2.914300    1.835500
C     -4.522200    1.939700    1.364900
C     -3.932100    0.935100    0.698400
C     -4.525200   -0.232500    0.062600
C     -5.941600   -0.600200   -0.004000
C     -6.212900   -1.743600   -0.660400
Si    -4.636100   -2.534900   -1.306700
C     -3.692100   -1.116400   -0.558300
C     -2.277600   -0.886800   -0.574400
S     -1.125600   -1.911500   -1.313200
C      0.194400   -0.910900   -0.858500
C      1.560300   -1.108900   -1.125100
C      2.467900   -0.158100   -0.653800
C      1.947900    0.921000    0.052600
N      0.644000    1.143900    0.328900
C     -0.229600    0.207600   -0.140200
C     -1.647600    0.210900    0.015500
C     -2.482900    1.165400    0.678900
C     -2.204800    2.302500    1.330200
C      3.907700   -0.283700   -0.870700
S      4.556500   -0.810400   -2.405400
C      6.209200   -0.671200   -1.894500
C      6.210000   -0.240500   -0.618100
N      7.301600    0.000500    0.163600
C      6.697800    0.407600    1.351700
C      5.289900    0.398100    1.249700
C      4.966800   -0.029900   -0.065800
