31

C     -3.370600    3.948100    0.618200
C     -4.420100    2.951100    0.251000
C     -3.852200    1.746200    0.096600
C     -4.501900    0.484500   -0.111500
C     -5.885200    0.155100   -0.365500
C     -6.013500   -1.174100   -0.474100
C     -4.673500   -1.827600   -0.280400
C     -3.772000   -0.650500   -0.058500
C     -2.313700   -0.630000    0.130600
C     -1.492300   -1.762700    0.218000
C     -1.847200   -3.092000    0.245300
N     -0.693900   -3.839000    0.349200
C      0.400700   -3.010100    0.381800
C     -0.064500   -1.718100    0.306700
C      0.721700   -0.545100    0.277600
C      2.134500   -0.522900    0.310200
C      2.777800    0.695900    0.206600
N      2.095100    1.848400    0.051900
C      0.733700    1.785400    0.029400
C     -0.065900    0.641100    0.181200
C     -1.543100    0.606100    0.195400
C     -2.399700    1.837700    0.291100
C     -2.127900    3.105100    0.656700
C      4.235100    0.807700    0.221300
S      5.026300    2.231400    0.862300
C      6.625700    1.627700    0.570100
C      6.508800    0.407400    0.012500
N      7.527900   -0.410400   -0.379200
C      6.821500   -1.501100   -0.881000
C      5.427100   -1.307700   -0.778800
C      5.218700   -0.036200   -0.176000
