30

C     -2.697900    1.528400    3.656500
C     -3.860200    1.332800    2.740000
C     -3.419400    0.901200    1.549300
C     -4.189100    0.587000    0.380100
C     -5.615300    0.642500    0.154700
C     -5.883500    0.255100   -1.098000
C     -4.602400   -0.091700   -1.799400
C     -3.565700    0.161300   -0.742700
C     -2.095000    0.003400   -0.816100
C     -1.369000   -0.433000   -1.943400
C     -1.900600   -0.786600   -3.168000
S     -0.714900   -1.274900   -4.325500
C      0.562100   -1.025600   -3.211700
C      0.041200   -0.588800   -2.026100
C      0.829100   -0.280200   -0.867700
C      2.234700   -0.388600   -0.807000
C      2.710400   -0.023400    0.437200
S      1.407200    0.431100    1.458800
C      0.170700    0.154900    0.274100
C     -1.255900    0.304200    0.332200
C     -1.958500    0.772600    1.562400
C     -1.537700    1.137300    2.788100
C      4.082900   -0.001900    0.884300
S      4.615500    0.471800    2.478400
C      6.296400    0.206000    2.134100
C      6.385300   -0.220000    0.858500
C      7.356300   -0.613800   -0.073500
C      6.635300   -0.927500   -1.231400
O      5.268100   -0.763300   -1.110500
C      5.193100   -0.332900    0.182700
