32

C      2.131800    3.585600    1.416600
C      3.519000    3.028100    1.356400
C      3.464200    1.733700    1.011700
C      4.543900    0.803700    0.834200
C      5.974000    0.958600    0.964500
C      6.576800   -0.208200    0.694400
C      5.544700   -1.249300    0.355300
C      4.267200   -0.470100    0.480900
C      2.889700   -0.955000    0.266500
C      2.638900   -2.318600   -0.109200
N      3.535300   -3.302200   -0.312300
S      2.687300   -4.664500   -0.726100
N      1.132400   -4.093500   -0.672800
C      1.217400   -2.799500   -0.325900
C      0.164800   -1.888000   -0.152000
C     -1.253500   -2.126000   -0.305400
C     -1.855400   -0.956200   -0.037400
C     -0.887000    0.153300    0.319900
C      0.442100   -0.555000    0.217300
C      1.749300   -0.072900    0.427500
C      2.069000    1.326100    0.816800
C      1.288700    2.396300    1.050500
C     -3.299900   -0.723700   -0.066000
C     -4.039200   -1.153300    1.046600
C     -5.413600   -0.948400    1.104100
C     -6.064000   -0.314500    0.048400
C     -5.353800    0.116000   -1.082900
C     -6.028100    0.746300   -2.142200
C     -5.342300    1.171600   -3.279100
C     -3.972200    0.968300   -3.374400
C     -3.287100    0.344400   -2.329500
C     -3.952900   -0.089800   -1.158300
