27

C     -0.687600   -0.509000    4.227000
C      0.353200   -0.427200    3.147900
C     -0.252600   -0.288900    1.962500
C      0.261600   -0.169300    0.656700
C      1.531300   -0.144800    0.074400
N      2.874200   -0.206900    0.317000
C      3.543600   -0.101300   -0.892900
C      2.611500    0.029700   -1.918400
C      1.370300   -0.003100   -1.262800
O      0.050100    0.068500   -1.604300
C     -0.599000   -0.035800   -0.411900
C     -2.044100   -0.006000   -0.310700
C     -2.982700    0.124800   -1.332300
C     -2.782000    0.257900   -2.683900
N     -4.023200    0.353300   -3.278100
C     -5.017400    0.283200   -2.324600
C     -4.394300    0.141500   -1.112000
C     -5.029000    0.032700    0.120300
C     -4.090100   -0.101600    1.175100
C     -2.661000   -0.122400    0.991700
C     -1.717200   -0.266900    2.144900
C     -1.975500   -0.394400    3.458100
C      4.979200   -0.131700   -0.983500
C      5.767300   -0.036600   -2.117600
N      7.135800   -0.094800   -1.920600
C      7.375700   -0.233800   -0.636900
S      6.004800   -0.301500    0.388200
