30

C     -2.104400    1.731400    3.728600
C     -3.153600    1.276100    2.759000
C     -2.552700    0.853900    1.641600
C     -3.040500    0.312300    0.443600
C     -4.316100   -0.058300   -0.007400
N     -5.640800   -0.071400    0.327100
C     -6.324900   -0.666700   -0.706900
C     -5.442600   -1.047900   -1.700700
C     -4.170600   -0.646000   -1.225000
N     -2.836500   -0.662900   -1.554700
C     -2.140800   -0.015600   -0.561400
C     -0.701800    0.169500   -0.548700
C     -0.171400    0.604900    0.654100
C      1.293800    0.672100    0.844800
C      2.210900    0.384400   -0.103200
C      3.589500    0.441700    0.268300
S      4.385900    1.951200    0.590100
C      5.906400    1.206100    0.911300
C      5.811600   -0.147500    0.770000
S      7.042100   -1.447500    0.963600
C      5.729900   -2.541300    0.540700
C      4.488200   -1.948700    0.282800
C      4.522100   -0.535300    0.413500
C      1.708400    0.022400   -1.424300
C      2.483000   -0.192500   -2.508300
Si     1.463600   -0.485100   -4.028600
C     -0.063000   -0.258800   -2.969700
C      0.241500   -0.052900   -1.668800
C     -1.097800    0.976000    1.757000
C     -0.827100    1.490900    2.970700
