24

C     -1.103900   -3.714600    0.223000
C     -2.229800   -2.720400    0.214400
C     -1.724000   -1.481400    0.216100
C     -2.339100   -0.209500    0.209000
C     -3.673700    0.232600    0.198800
N     -4.971700   -0.195500    0.191100
C     -5.778500    0.918200    0.182700
C     -5.005500    2.064400    0.184500
C     -3.668600    1.597400    0.194800
N     -2.368400    2.040100    0.201900
C     -1.556000    0.935000    0.211000
C     -0.093900    0.930500    0.220800
N      0.512800    2.137100    0.222800
C      1.868700    2.104200    0.231200
C      2.646000    0.939200    0.237500
C      1.968600   -0.289900    0.240500
C      0.574800   -0.314700    0.229700
C     -0.252600   -1.544500    0.226300
C      0.118000   -2.836100    0.230300
C      4.112800    0.978700    0.263100
C      4.985000    0.202400    1.006500
C      6.353100    0.513800    0.754700
C      6.488000    1.513800   -0.180200
S      4.975100    2.068800   -0.747100
