25

C     -0.926400   -3.743800    0.399800
C     -1.955900   -2.659000    0.270200
C     -1.346600   -1.474300    0.131100
C     -1.860400   -0.154200   -0.026100
C     -3.167100    0.398700   -0.094000
C     -4.479800   -0.113700   -0.035500
C     -5.570900    0.757700   -0.140800
C     -5.374400    2.126100   -0.302800
C     -4.086800    2.664800   -0.364400
C     -3.004400    1.782400   -0.257800
N     -1.650300    2.043400   -0.286400
C     -0.948200    0.881400   -0.147100
C      0.502800    0.746500   -0.128300
N      1.215300    1.886900   -0.258000
C      2.561900    1.733400   -0.237200
C      3.232300    0.512200   -0.093900
C      2.446000   -0.642400    0.041700
C      1.055300   -0.541200    0.024200
C      0.114400   -1.674400    0.157200
C      0.368000   -2.984800    0.312100
C      4.695800    0.467600   -0.071300
C      5.599200    1.339500    0.514000
N      6.937400    1.042300    0.339900
C      7.044100   -0.052500   -0.378000
S      5.574000   -0.775000   -0.877800
