31

C     -1.989100   -4.337300   -1.233500
C     -0.809400   -3.509900   -0.819500
C     -1.218100   -2.261500   -0.562800
C     -0.528200   -1.091300   -0.171200
C      0.838000   -0.782400    0.032300
C      2.043700   -1.487500   -0.005000
N      3.223700   -0.857400    0.225600
C      3.241900    0.471900    0.493600
C      2.089700    1.255500    0.534400
C      0.886500    0.586800    0.299800
N     -0.405600    1.070200    0.248300
C     -1.290900    0.049000    0.035000
C     -2.725700    0.213100   -0.062100
C     -3.412800   -0.887200   -0.547000
C     -4.860800   -0.797600   -0.837300
C     -5.597600    0.304400   -0.627000
C     -4.966500    1.455700   -0.036400
C     -5.624600    2.578300    0.306500
Si    -4.493300    3.771500    1.171400
C     -3.111200    2.512700    0.972100
C     -3.519200    1.415600    0.295700
C     -2.663800   -2.146300   -0.779900
C     -3.120600   -3.350800   -1.168800
C      4.586800    1.018400    0.722600
S      4.843000    2.445600    1.677200
C      6.551800    2.410000    1.486600
C      6.920200    1.340800    0.724900
S      8.547200    0.783500    0.188700
C      7.670300   -0.514500   -0.608000
C      6.278300   -0.499200   -0.464900
C      5.815200    0.590900    0.323300
