26

C     -3.745200   -2.824500    1.224900
C     -2.332100   -2.345800    1.083900
C     -2.324500   -1.152700    0.476300
C     -1.252400   -0.294200    0.117500
C      0.146300   -0.390400    0.270400
N      0.903800   -1.365100    0.827700
C      2.239700   -1.124300    0.808300
C      2.891800   -0.008000    0.270200
C      2.075200    0.985300   -0.294100
C      0.693100    0.767600   -0.281900
N     -0.351500    1.540700   -0.745100
C     -1.547300    0.907100   -0.514700
C     -2.901600    1.372100   -0.850200
C     -3.179500    2.575600   -1.482900
N     -4.428100    2.999900   -1.791000
C     -5.449900    2.183200   -1.450400
C     -5.292200    0.960500   -0.816600
C     -3.999400    0.540200   -0.507800
C     -3.701400   -0.745200    0.168200
C     -4.535900   -1.707800    0.597800
C      4.362200    0.099900    0.313400
C      5.104600    0.797300   -0.641300
C      6.493100    0.851300   -0.525100
C      7.113000    0.209200    0.537000
C      6.314800   -0.467800    1.439700
N      4.968000   -0.537500    1.348100
