28

C     -2.359500    1.148600   -3.513100
C     -1.258400    0.858200   -2.534700
C     -1.797100    0.537900   -1.353200
C     -1.220300    0.186200   -0.122900
C      0.056700    0.022100    0.387900
O      1.355900    0.108200    0.005000
C      2.079000   -0.233500    1.128200
C      1.265900   -0.508500    2.217700
C     -0.013000   -0.337500    1.682500
O     -1.317200   -0.425500    2.086400
C     -2.025300   -0.101300    0.960200
C     -3.487800   -0.078900    0.967100
C     -4.245900   -0.381200    2.099500
C     -5.638900   -0.338800    2.028900
C     -6.274900    0.003900    0.833000
C     -5.527300    0.308900   -0.308700
C     -4.130800    0.272700   -0.260900
C     -3.266400    0.585000   -1.435800
C     -3.602400    0.939100   -2.688300
C      3.521900   -0.192500    0.983800
C      4.383200    0.276100    2.009500
C      5.810500    0.329700    1.900900
C      6.527900   -0.085900    0.760800
C      5.683000   -0.559400   -0.243000
C      6.166100   -1.031700   -1.438300
S      4.891200   -1.566600   -2.456100
C      3.692400   -1.165400   -1.289700
C      4.239600   -0.617000   -0.151500
