25

C     -0.936100    3.880200    0.763700
C      0.397900    3.262100    0.504400
C      0.235800    1.955300    0.261600
C      1.207800    0.941900    0.100000
C      2.613100    0.972700    0.028100
C      3.041100   -0.337600   -0.106200
N      1.916200   -1.137300   -0.111100
C      0.784800   -0.370700    0.021400
C     -0.619100   -0.815800    0.031000
C     -0.941700   -2.172900   -0.027400
C     -2.272800   -2.572500   -0.088000
C     -3.305300   -1.630300   -0.149400
C     -4.627700   -2.075100   -0.273700
C     -5.642000   -1.145300   -0.392100
N     -5.427500    0.178500   -0.414800
C     -4.137800    0.586100   -0.286300
C     -3.014400   -0.243700   -0.107200
C     -1.655200    0.177300    0.065800
C     -1.194100    1.593500    0.286500
C     -1.867700    2.706300    0.638100
C      4.379300   -0.840400   -0.223200
N      5.425000   -0.040600   -0.210900
C      6.583600   -0.780400   -0.339100
C      6.410400   -2.142400   -0.448000
S      4.739200   -2.515800   -0.388500
