28

C     -0.869500    3.632500    0.892700
C      0.501900    3.189000    0.490600
C      0.478500    1.874600    0.235200
C      1.545900    0.970900    0.016700
C      2.928900    1.148600   -0.172000
C      3.484200   -0.112500   -0.306700
N      2.463600   -1.031300   -0.169800
C      1.269300   -0.383700    0.028300
C     -0.072500   -0.967400    0.178600
C     -0.295800   -2.329100    0.276900
N     -1.516600   -2.903000    0.361300
C     -2.602500   -2.129500    0.251400
C     -3.842600   -2.829300    0.277300
C     -5.127600   -2.272400    0.096100
C     -5.011000   -0.924600   -0.172400
C     -6.052600   -0.107400   -0.525900
N     -5.505600    1.118300   -0.824100
C     -4.134700    1.072300   -0.674000
C     -3.798600   -0.168900   -0.185300
C     -2.497900   -0.700700    0.096300
C     -1.200200   -0.104500    0.197500
C     -0.890600    1.347800    0.372100
C     -1.654800    2.352800    0.836900
C      4.850800   -0.475000   -0.518200
C      5.999500    0.200500   -0.152000
C      7.111500   -0.560200   -0.588400
C      6.617200   -1.674400   -1.226100
N      5.248000   -1.609500   -1.186100
