21

C     -3.637700    2.241500    1.445500
C     -2.136300    2.256400    1.442100
C     -1.685300    1.192300    0.766800
C     -0.365500    0.754600    0.479300
C      0.914200    1.256600    0.785100
C      1.843400    0.386300    0.228000
N      1.136900   -0.620100   -0.401000
C     -0.205100   -0.405600   -0.254200
C     -1.286500   -1.237500   -0.769800
N     -0.920300   -2.337900   -1.467300
C     -1.940400   -3.090600   -1.933500
C     -3.285900   -2.795700   -1.735900
C     -3.629600   -1.652700   -1.011700
C     -2.617700   -0.841400   -0.508500
C     -2.823100    0.397500    0.275000
C     -3.961400    0.997000    0.663000
C      3.259300    0.338700    0.185700
C      4.016500    1.283200    0.775200
C      5.415300    0.997400    0.582900
C      5.545100   -0.128900   -0.128900
C      4.186500   -0.672300   -0.460200
