29

C      1.960200   -3.852000    0.761200
C      0.666200   -3.105300    0.763000
C      0.880800   -1.814600    0.450800
C     -0.101300   -0.733400    0.250200
C     -1.453900   -0.968900    0.510200
C     -2.422900    0.000800    0.254800
C     -3.805000   -0.362000    0.578400
C     -4.441900   -0.152000    1.748600
C     -5.813700   -0.633500    1.797600
C     -6.255200   -1.227400    0.673500
Si    -4.923000   -1.251500   -0.662100
C     -2.049900    1.249500   -0.291200
C     -3.033100    2.235300   -0.566500
C     -2.723100    3.458200   -1.149100
C     -1.413400    3.723400   -1.482600
C     -0.423500    2.775000   -1.205900
C     -0.674100    1.520500   -0.577300
C      0.340200    0.531800   -0.242900
C      1.843000    0.766500   -0.346600
N      2.246700    2.034000   -0.608000
C      3.557900    2.359600   -0.679400
C      4.541300    1.400800   -0.451700
C      5.962800    1.442200   -0.439500
C      6.409200    0.185600   -0.114500
N      5.310200   -0.609900    0.071800
C      4.146000    0.093000   -0.154500
C      2.784700   -0.263500   -0.104400
C      2.306800   -1.603400    0.235800
C      2.940300   -2.780000    0.391600
