31

C     -0.786200   -3.790100   -1.219800
C      0.422700   -3.011800   -0.826800
C      0.073200   -1.755600   -0.497600
C      0.954300   -0.646500   -0.087600
C      2.370500   -0.796700   -0.140000
C      3.287100    0.251300    0.056800
C      4.739200    0.055700    0.005100
C      5.499200   -1.096700   -0.138900
C      6.869400   -0.738000   -0.124900
C      6.928800    0.625300    0.029500
N      5.645700    1.093600    0.109000
C      2.698900    1.532900    0.245300
N      3.358900    2.702800    0.369200
S      2.220900    3.895100    0.468500
N      0.842100    2.996900    0.399000
C      1.184700    1.698500    0.320800
C      0.298500    0.573800    0.255800
C     -1.177600    0.653600    0.367900
C     -1.917000    1.624500    1.082200
C     -1.496600    2.538600    2.019300
O     -2.549400    3.279000    2.480200
C     -3.673500    2.811900    1.866700
C     -3.339400    1.772700    1.041000
C     -4.187800    0.974200    0.299500
C     -5.633300    1.103800    0.159700
C     -6.160700    0.142500   -0.615300
Si    -4.875700   -1.064100   -1.251300
C     -3.498900   -0.114600   -0.333200
C     -2.069000   -0.331300   -0.242500
C     -1.380200   -1.593400   -0.644800
C     -1.876200   -2.778600   -1.047900
