32

C     -2.475800    3.509100    1.180400
C     -1.180700    2.860300    0.791500
C     -1.389400    1.570500    0.472200
C     -0.427900    0.532700    0.031600
C      0.963500    0.866100   -0.103500
C      1.971000   -0.037000   -0.508500
C      3.361700    0.336200   -0.628900
C      3.902700    1.131500   -1.674200
C      5.292000    1.506400   -1.778400
C      6.290500    1.134500   -0.848200
C      5.736900    0.366800    0.166500
C      6.387600   -0.167400    1.245700
O      5.493400   -0.853000    2.023200
C      4.264100   -0.750900    1.428400
C      4.366600   -0.011100    0.277900
C      1.450200   -1.312000   -0.780500
C      2.232400   -2.358200   -1.217800
S      1.316800   -3.781400   -1.460100
C     -0.138200   -3.000300   -0.993800
C      0.044300   -1.677500   -0.653300
C     -0.975000   -0.780300   -0.237800
C     -2.427600   -1.073700   -0.079900
N     -2.854700   -2.335500   -0.352500
C     -4.163500   -2.675300   -0.230100
C     -5.097600   -1.729000    0.179800
C     -6.498800   -1.718600    0.412300
C     -6.813900   -0.441700    0.810800
O     -5.702200    0.335600    0.839600
C     -4.645900   -0.443300    0.455000
C     -3.311600   -0.064200    0.339600
C     -2.811000    1.274800    0.623000
C     -3.451300    2.383100    1.030800
