32

C      0.672700   -2.645200    3.855500
C      1.662300   -2.138300    2.851400
C      1.033000   -1.404600    1.918100
C      1.588700   -0.665700    0.766400
C      3.018100   -0.627300    0.565900
C      3.663100    0.143800   -0.423900
C      5.097000    0.200500   -0.624300
C      5.848500   -0.032900   -1.760900
N      7.217200    0.115900   -1.626900
C      7.489400    0.472200   -0.391200
S      6.149700    0.631300    0.661900
C      2.742800    0.895800   -1.153300
C      3.039500    1.836100   -2.110200
N      1.853400    2.405500   -2.501600
C      0.808000    1.855000   -1.795100
C      1.310600    0.863600   -0.977200
C      0.626500    0.040400   -0.052400
C     -0.846900   -0.090000    0.149500
C     -1.795900    0.324500   -0.797200
C     -3.191300    0.265400   -0.542400
C     -4.243900    0.710300   -1.390200
C     -4.064500    1.279800   -2.628900
S     -5.561700    1.719300   -3.354900
C     -6.465000    1.146500   -2.012500
C     -5.640600    0.630100   -1.046300
C     -6.134800    0.106700    0.142600
C     -5.094400   -0.343400    0.984100
C     -3.688600   -0.274600    0.674800
C     -2.743600   -0.771000    1.577500
C     -1.356700   -0.713800    1.320700
C     -0.393100   -1.377200    2.218300
C     -0.616900   -2.085600    3.339400
