31

C      1.916700   -4.083600    0.813800
C      0.669400   -3.285500    0.627200
C      0.975100   -1.993500    0.409300
C      0.054300   -0.864800    0.275100
C     -1.412200   -1.066400    0.231400
C     -2.331900   -0.078100    0.242900
C     -3.708500   -0.439600    0.119100
S     -4.528800   -1.413200    1.330800
C     -6.054500   -1.370900    0.508700
C     -5.893400   -0.640500   -0.607800
O     -6.848500   -0.355800   -1.533900
C     -6.098200    0.405400   -2.412800
C     -4.759900    0.569700   -2.032500
C     -4.636100   -0.135400   -0.821900
C     -1.824800    1.282400    0.372800
C     -2.590300    2.375200    0.577000
Si    -1.554400    3.882800    0.893800
C     -0.044200    2.798000    0.722600
C     -0.357700    1.524200    0.395800
C      0.589600    0.395200    0.190500
C      2.081900    0.555700   -0.068300
C      2.567000    1.737200   -0.634600
C      3.930100    1.955700   -0.832300
C      4.872400    0.966100   -0.491000
C      6.304500    1.016200   -0.594200
C      6.906600   -0.150000   -0.202400
S      5.766800   -1.310800    0.274300
C      4.405700   -0.271500   -0.014500
C      3.007000   -0.506500    0.152600
C      2.430300   -1.834000    0.434700
C      2.978600   -3.039700    0.671200
