31

C     -1.019900    4.188500    0.445400
C      0.201700    3.346200    0.305300
C     -0.150100    2.066200    0.092700
C      0.729200    0.906200   -0.095000
C      2.124300    1.054600   -0.231200
C      2.944100   -0.035700   -0.533800
C      2.342500   -1.276500   -0.729400
C      0.956700   -1.428000   -0.589300
C      0.116900   -0.365200   -0.207700
C     -1.359000   -0.512100   -0.037500
C     -2.053600   -1.734700    0.155400
C     -1.558100   -2.975000    0.495000
N     -2.615200   -3.857500    0.572700
C     -3.797400   -3.196700    0.346300
C     -3.479700   -1.879900    0.125900
C     -4.364500   -0.836800   -0.085500
C     -5.818200   -0.917300   -0.189900
C     -6.387700    0.282300   -0.389300
Si    -5.134500    1.673100   -0.453000
C     -3.712600    0.439000   -0.167200
C     -2.280500    0.623600   -0.074800
C     -1.611600    1.950400    0.061100
C     -2.114800    3.178300    0.291000
C      4.392000    0.110600   -0.668500
S      5.073000    1.289000   -1.736000
C      6.695800    0.836200   -1.373000
C      6.712600   -0.183500   -0.466000
S      8.085000   -1.069200    0.291500
C      6.834900   -1.970500    1.139800
C      5.511600   -1.613900    0.854300
C      5.422700   -0.563300   -0.097900
