29

C      0.883300   -3.851200   -0.622800
C     -0.374800   -3.060400   -0.473300
C     -0.075100   -1.779100   -0.198400
C     -0.987100   -0.635700   -0.078300
C     -2.380700   -0.807900    0.015600
C     -3.231700    0.284900    0.196600
C     -2.667700    1.551700    0.328200
C     -1.280500    1.727200    0.237000
C     -0.405400    0.655700   -0.019900
C      1.072300    0.815800   -0.103800
C      1.781700    2.000300   -0.352000
C      1.318700    3.208400   -0.817100
O      2.344500    4.101300   -0.934300
C      3.487500    3.452100   -0.576600
C      3.197800    2.152500   -0.246000
C      4.106300    1.151600    0.148600
C      5.498100    1.343200    0.333900
C      6.286600    0.287000    0.767300
C      5.694000   -0.940200    1.031000
C      4.316200   -1.124400    0.832300
C      3.457200   -0.108900    0.344700
C      2.008400   -0.279700    0.090200
C      1.376700   -1.620600   -0.103300
C      1.935800   -2.807100   -0.410300
C     -4.671700    0.084600    0.300400
C     -5.320600   -0.631900    1.242200
C     -6.768100   -0.675800    1.102100
C     -7.264100   -0.000600    0.049200
Si    -5.891600    0.816900   -0.947500
