33

C     -0.417200   -0.689900   -4.238100
C      0.684400   -0.593400   -3.227400
C      0.163700   -0.419500   -2.000000
C      0.840700   -0.270100   -0.703900
C      2.245900   -0.307400   -0.604300
C      2.905700   -0.162500    0.623600
C      2.111300    0.019800    1.760000
C      0.711700    0.056900    1.675400
C      0.032900   -0.087700    0.450700
C     -1.472100   -0.053700    0.349900
C     -2.297300    0.121700    1.476800
C     -3.708300    0.151100    1.373000
C     -4.568400    0.328900    2.510900
N     -4.189700    0.487500    3.793000
S     -5.580100    0.649500    4.684100
N     -6.730100    0.526200    3.493900
C     -6.065800    0.352400    2.341300
C     -6.657000    0.201000    1.067800
C     -5.768900    0.030000   -0.010800
C     -4.351600    0.003600    0.118800
C     -3.534900   -0.171300   -1.003700
C     -2.127400   -0.201300   -0.905500
C     -1.287800   -0.386300   -2.099300
C     -1.642300   -0.542200   -3.387100
C      4.365100   -0.218200    0.725700
C      5.059400   -1.003200    1.661600
N      6.417500   -1.118000    1.841900
C      7.281800   -0.417200    1.054800
C      6.741900    0.421000    0.061000
N      7.435100    1.182900   -0.800700
S      6.313600    1.970700   -1.734900
N      4.905900    1.373700   -1.096800
C      5.245100    0.523800   -0.108800
