32

C     -1.422000    3.385200   -1.639300
C     -0.190700    2.702300   -1.125200
C     -0.532300    1.567200   -0.491600
C      0.322700    0.572500    0.169400
C      1.717800    0.694200    0.234200
C      2.487400   -0.278600    0.875800
C      1.793800   -1.351900    1.423200
N      0.446900   -1.505400    1.385300
C     -0.291200   -0.551300    0.764000
C     -1.765700   -0.726900    0.729200
C     -2.507000   -1.795200    1.282800
C     -2.045600   -2.900300    1.968900
N     -3.124600   -3.690900    2.329500
C     -4.299700   -3.122600    1.890300
C     -3.905800   -1.981100    1.262100
C     -4.696000   -1.004900    0.621000
C     -6.068700   -0.900000    0.433600
C     -6.206000    0.281200   -0.266500
O     -4.993500    0.870100   -0.497500
C     -4.028400    0.063100    0.060900
C     -2.623900    0.241900    0.086200
C     -1.983900    1.409900   -0.535300
C     -2.510000    2.455300   -1.196000
C      3.950000   -0.165100    0.948900
S      4.768200   -0.526900    2.431000
C      6.312200   -0.170200    1.780400
C      6.221500    0.222900    0.471700
N      7.309000    0.562800   -0.274100
C      6.936300    0.908900   -1.536600
C      5.620000    0.920800   -2.013500
N      4.518400    0.589200   -1.285900
C      4.860500    0.233100   -0.012000
