32

C     -0.740600   -4.151700    1.618400
C      0.431600   -3.354300    1.150800
C      0.006700   -2.175200    0.667400
C      0.793800   -1.052800    0.174800
C      2.169100   -1.150400   -0.089600
C      2.863500   -0.065500   -0.621000
C      2.121100    1.075900   -0.877900
N      0.793700    1.199100   -0.631700
C      0.122500    0.156600   -0.077000
C     -1.375700    0.319300    0.126600
C     -2.037500    1.610700    0.051800
C     -1.363400    2.862500    0.130400
C     -2.006200    4.098500    0.028600
C     -3.372800    4.140100   -0.144100
C     -4.084500    2.945500   -0.189500
C     -3.454000    1.678300   -0.077100
C     -4.191100    0.477000   -0.093000
C     -5.659500    0.381300   -0.320000
C     -6.162200   -0.862300   -0.303400
Si    -4.867100   -2.140400    0.018400
C     -3.555200   -0.778000    0.134300
C     -2.169400   -0.863700    0.327500
C     -1.447000   -2.095800    0.738600
C     -1.882700   -3.223300    1.332200
C      4.286700   -0.133900   -0.911600
S      4.962700   -1.347300   -1.935500
C      6.563700   -0.732500   -1.773000
C      6.514600    0.343900   -0.957500
C      7.501100    1.232300   -0.467300
C      6.963900    2.213100    0.374300
S      5.227500    2.143600    0.645400
C      5.265200    0.709700   -0.455100
