30

C     -0.966600    0.529900   -3.866600
C      0.309700    0.466600   -3.089700
C      0.031700    0.256600   -1.792200
C      0.954200   -0.064700   -0.706900
C      2.348300    0.015600   -0.813200
C      3.167300   -0.356300    0.259500
C      2.513700   -0.803100    1.405500
N      1.169300   -0.888800    1.549800
C      0.392600   -0.516900    0.496300
C     -1.086400   -0.558700    0.714100
C     -1.599100   -1.074500    1.914400
C     -2.962100   -1.052400    2.199700
C     -3.871700   -0.432800    1.345800
C     -5.226400   -0.395200    1.771100
C     -6.252100    0.255600    1.079200
C     -5.852800    0.944300   -0.078300
N     -6.673800    1.684200   -0.839500
S     -5.735300    2.356600   -2.022800
N     -4.262100    1.720400   -1.634700
C     -4.419400    0.913600   -0.569200
C     -3.391200    0.141400    0.117800
C     -2.007000   -0.042900   -0.249300
C     -1.417100    0.222600   -1.588400
C     -1.992900    0.293300   -2.801700
C      4.630200   -0.284300    0.180500
C      5.394600    0.361600    1.161200
C      6.783600    0.412200    1.052300
C      7.379100   -0.188800   -0.042700
N      6.689200   -0.823000   -1.012300
C      5.341000   -0.855700   -0.876900
