30

C     -0.914900   -4.162700    0.412700
C      0.303100   -3.315600    0.585700
C     -0.025000   -2.025200    0.406900
C      0.855000   -0.876300    0.212500
C      2.252400   -0.987600    0.278300
C      3.044600    0.061700   -0.169700
N      2.486200    1.173600   -0.697400
C      1.129700    1.255000   -0.731000
C      0.242200    0.313900   -0.218400
C     -1.269500    0.514900   -0.176200
C     -2.098400   -0.574100   -0.000400
C     -3.603900   -0.381500   -0.004000
C     -4.496600   -1.328700    0.498900
N     -5.850800   -1.276500    0.405500
C     -6.369600   -0.191700   -0.190800
C     -5.602000    0.866900   -0.633200
C     -4.208400    0.793300   -0.494700
C     -3.339800    1.969600   -0.663000
C     -3.779900    3.227400   -0.882600
Si    -2.434100    4.480000   -0.584100
C     -1.316800    3.051800   -0.133600
C     -1.903800    1.849100   -0.327200
C     -1.457800   -1.894000    0.167400
C     -1.964900   -3.139800    0.097700
C      4.522000    0.034400   -0.139800
C      5.256000   -1.156900   -0.292200
C      6.654900   -1.161000   -0.254000
C      7.352200    0.028700   -0.066600
C      6.652900    1.222700    0.076600
C      5.255300    1.223100    0.037200
