29

C     -0.709400    1.892700   -3.621000
C      0.496200    1.540700   -2.815400
C      0.117500    0.929000   -1.681600
C      0.966100    0.365300   -0.624900
C      2.349500    0.580100   -0.578500
C      3.072300    0.185200    0.542300
N      2.455800   -0.394000    1.601700
C      1.122600   -0.636600    1.504200
C      0.320200   -0.342500    0.405300
C     -1.135800   -0.611300    0.348600
C     -1.828200   -1.593600    1.096800
C     -1.316500   -2.657200    1.809600
N     -2.377200   -3.371700    2.327000
C     -3.568000   -2.800100    1.940100
C     -3.254600   -1.719700    1.153500
C     -4.134000   -0.871900    0.493600
C     -5.591100   -0.881700    0.549800
C     -6.141700    0.117900   -0.167200
Si    -4.859600    1.186400   -1.039800
C     -3.468300    0.081500   -0.349600
C     -2.038600    0.140200   -0.515500
C     -1.347100    0.860900   -1.618900
C     -1.825100    1.364300   -2.770800
C      4.529900    0.423500    0.658000
C      5.190800    0.399500    1.889000
C      6.557100    0.668600    1.935300
C      7.240400    0.935700    0.754100
C      6.524800    0.929300   -0.426600
N      5.198000    0.687700   -0.501200
