30

C     -0.739900   -3.529900   -1.021900
C      0.511100   -2.753000   -0.776000
C      0.203400   -1.509000   -0.368100
C      1.113800   -0.416700   -0.017200
C      2.508700   -0.583400   -0.079900
C      3.355600    0.465800    0.257400
N      2.838800    1.654000    0.648300
C      1.486000    1.791300    0.701100
C      0.544500    0.809400    0.386300
C     -0.946400    0.989200    0.453800
C     -1.566300    2.215500    0.857400
N     -0.959000    3.357400    1.225800
S     -2.115900    4.470700    1.595800
N     -3.471500    3.576200    1.312600
C     -3.064300    2.356400    0.912500
C     -3.921400    1.273200    0.564600
C     -5.326000    1.417900    0.620500
C     -6.134200    0.351700    0.277800
C     -5.506500   -0.809800   -0.104700
N     -4.160500   -0.958900   -0.161600
C     -3.324700    0.056100    0.164100
C     -1.887800   -0.069400    0.114300
C     -1.247600   -1.354500   -0.308800
C     -1.795200   -2.525500   -0.687700
C      4.835800    0.338400    0.207100
N      5.348100   -0.841000   -0.180500
C      6.677900   -0.890200   -0.204500
N      7.506900    0.099100    0.113100
C      6.890600    1.218400    0.481700
N      5.576900    1.401200    0.549100
