31

C     -2.373900   -2.350100    2.979200
C     -1.012600   -1.921600    2.548000
C     -1.103800   -1.140400    1.457400
C     -0.014900   -0.503400    0.706500
C      1.327800   -0.667800    1.092000
C      2.332200   -0.053300    0.362200
N      2.044400    0.702000   -0.714800
C      0.739400    0.847000   -1.069100
C     -0.357600    0.281000   -0.416900
C     -1.790200    0.457300   -0.829900
C     -2.188500    1.240500   -1.956900
N     -1.397100    1.928100   -2.809500
S     -2.358200    2.670200   -3.947500
N     -3.858400    2.163900   -3.429700
C     -3.567200    1.420700   -2.370400
C     -4.594500    0.781700   -1.613000
C     -5.965300    0.894400   -1.933300
C     -6.714800    0.177300   -1.035100
S     -5.744200   -0.589900    0.139100
C     -4.243500    0.014300   -0.512800
C     -2.881000   -0.162300   -0.105200
C     -2.509000   -0.984400    1.074900
C     -3.244400   -1.686200    1.958300
C      3.763800   -0.154300    0.670800
S      4.377900   -1.085300    2.022600
C      6.038900   -0.708300    1.701900
C      6.075400    0.085600    0.615500
N      7.186400    0.612200    0.024000
C      6.619400    1.328600   -1.027500
C      5.212900    1.211900   -1.034200
C      4.850800    0.382700    0.062100
