28

C     -1.426100   -3.384400   -0.514600
C     -0.214500   -2.506100   -0.453700
C     -0.586500   -1.234400   -0.231000
C      0.244900   -0.029500   -0.094900
C      1.642900   -0.059900   -0.188400
C      2.363600    1.119600   -0.049500
N      1.746300    2.301800    0.174800
C      0.392100    2.310300    0.262100
C     -0.422700    1.189800    0.138300
C     -1.902500    1.268700    0.244400
N     -2.404400    2.523700    0.472900
C     -3.744000    2.664400    0.579700
C     -4.602600    1.598300    0.466800
C     -6.049800    1.549700    0.550700
C     -6.416300    0.272000    0.373600
C     -5.237100   -0.645000    0.155400
C     -4.089400    0.316100    0.233500
C     -2.719300    0.116100    0.115500
C     -2.044400   -1.167400   -0.128200
C     -2.541000   -2.405900   -0.290800
C      3.831100    1.165000   -0.135700
S      4.693100    2.686200    0.049900
C      6.256700    1.980300   -0.161400
C      6.087100    0.660100   -0.359300
N      7.076700   -0.255600   -0.567200
C      6.337500   -1.425500   -0.705100
C      4.953600   -1.180300   -0.578200
C      4.781100    0.216300   -0.346300
