31

C     -0.858100   -3.437400    2.429600
C      0.425400   -2.812800    1.983300
C      0.148600   -1.732800    1.241500
C      0.997600   -0.753300    0.674000
C      2.415300   -0.756500    0.605200
C      2.896700    0.346700   -0.067700
S      1.614800    1.344000   -0.606200
C      0.393700    0.366600    0.110600
C     -1.046900    0.627200    0.023300
C     -1.886300   -0.426900    0.338300
C     -3.355300   -0.365200   -0.056600
C     -4.124300   -1.535400   -0.199700
C     -5.479700   -1.491700   -0.543100
C     -6.094900   -0.272800   -0.791600
C     -5.343600    0.897700   -0.739400
C     -3.980300    0.856100   -0.402100
C     -3.125100    2.037200   -0.483700
C     -3.455100    3.318200   -0.716600
C     -2.219800    4.158200   -0.711500
C     -1.152700    3.145000   -0.429400
C     -1.680200    1.911000   -0.319900
C     -1.295200   -1.564400    1.087600
C     -1.886400   -2.527000    1.821200
C      4.268900    0.668400   -0.343600
S      4.958200    2.228100   -0.051400
C      6.521200    1.754000   -0.593800
C      6.454600    0.458100   -0.968800
C      7.410700   -0.443700   -1.493200
C      6.868700   -1.708700   -1.745100
S      5.162900   -1.914900   -1.372900
C      5.220600   -0.182800   -0.846100
