32

C     -0.975900   -4.231600   -1.046100
C      0.282400   -3.423100   -1.026900
C     -0.007400   -2.165000   -0.668400
C      0.822200   -1.019000   -0.592400
C      2.240400   -0.959800   -0.641300
C      2.703900    0.319400   -0.412900
S      1.414000    1.402200   -0.118300
C      0.213200    0.218700   -0.432900
C     -1.272000    0.442900   -0.323400
C     -1.922200    1.704300   -0.451900
C     -1.325500    2.834100   -1.075400
C     -1.955700    4.073100   -1.175000
C     -3.228200    4.223300   -0.669700
C     -3.867900    3.124600   -0.097900
C     -3.261200    1.842300    0.011500
C     -3.951300    0.712000    0.571500
C     -5.247300    0.796000    1.141500
C     -5.866100   -0.321500    1.676200
N     -5.295300   -1.529100    1.708300
C     -4.059500   -1.611700    1.164200
C     -3.341400   -0.564000    0.552200
C     -2.051100   -0.716300   -0.015900
C     -1.434300   -2.033400   -0.372500
C     -2.011900   -3.219100   -0.648200
C      4.069400    0.745300   -0.357100
S      4.722700    2.049100   -1.300900
C      6.334600    1.838100   -0.681900
C      6.300700    0.817900    0.198600
C      7.141200    0.088900    1.074300
C      6.333800   -0.877000    1.712600
N      5.008500   -0.802200    1.287700
C      5.072900    0.221400    0.383700
