28

C     -2.506600    3.257700    0.145500
C     -1.038300    2.993900    0.204500
C     -0.817200    1.675200    0.108900
C      0.415500    0.962000    0.112900
C      1.730900    1.490800    0.227900
C      2.697400    0.502800    0.186400
S      1.977000   -1.044400    0.024800
C      0.390100   -0.419600   -0.008300
C     -0.851100   -1.217400   -0.141500
C     -0.876600   -2.637300   -0.269300
N      0.160800   -3.503500   -0.299500
S     -0.456200   -5.044100   -0.464600
N     -2.093000   -4.709800   -0.509600
C     -2.115000   -3.390300   -0.393400
C     -3.335000   -2.653700   -0.382800
C     -4.630300   -3.166700   -0.485500
C     -5.448300   -2.062400   -0.422500
N     -4.658000   -0.941100   -0.287700
C     -3.315700   -1.274300   -0.260600
C     -2.120000   -0.526600   -0.142800
C     -2.094800    0.954400   -0.018400
C     -3.077600    1.874600    0.000900
C      4.154600    0.642600    0.288400
C      4.725400    1.559900    1.178100
C      6.111300    1.692000    1.255900
C      6.894500    0.901600    0.432600
N      6.391400    0.008900   -0.444200
C      5.039100   -0.099700   -0.493900
