32

C     -1.441500   -3.695600    0.317500
C     -0.031200   -3.218300    0.168200
C     -0.011700   -1.878800    0.216300
C      1.092100   -0.989900    0.321400
C      2.478900   -1.273800    0.201600
C      3.252800   -0.146300    0.401600
S      2.284200    1.221000    0.766400
C      0.830400    0.335200    0.627400
C     -0.528900    0.919500    0.771400
C     -0.731500    2.242700    1.177600
C     -2.015700    2.789500    1.237200
C     -3.138500    2.082400    0.802600
C     -4.414600    2.765600    0.829200
C     -5.633100    2.249800    0.342700
C     -5.413700    1.008400   -0.218300
C     -6.340600    0.268800   -0.901500
O     -5.737300   -0.840200   -1.418400
C     -4.420900   -0.796700   -1.050300
C     -4.180100    0.288000   -0.241800
C     -2.946200    0.730100    0.330500
C     -1.657100    0.105500    0.450200
C     -1.378700   -1.354000    0.325600
C     -2.199900   -2.409600    0.474600
C      4.701100   -0.032000    0.391200
C      5.540200   -0.778500    1.225000
N      6.913100   -0.749700    1.276000
C      7.622200    0.074200    0.449800
C      6.908700    0.882000   -0.458600
N      7.435300    1.739800   -1.347600
S      6.155400    2.410200   -2.164400
N      4.883300    1.641800   -1.431100
C      5.400700    0.826200   -0.493600
