24

C     -4.020000   -3.116800    0.700900
C     -4.719600   -1.822200    0.410900
C     -3.807200   -0.870800    0.174500
C     -3.957000    0.502500   -0.142900
C     -5.091300    1.319000   -0.314500
C     -4.623600    2.581300   -0.616100
N     -3.248500    2.542600   -0.629600
C     -2.819400    1.271400   -0.340500
C     -1.432300    0.779800   -0.248700
C     -0.327200    1.613400   -0.460800
C      0.949400    1.067500   -0.354500
Si     2.618800    1.898500   -0.575200
C      3.443800    0.258200   -0.206500
C      2.551400   -0.724300    0.036800
C      1.142800   -0.298000   -0.039600
C      0.052300   -1.134000    0.172800
C     -1.242900   -0.607000    0.071200
C     -2.457300   -1.435300    0.283900
C     -2.568400   -2.740200    0.589600
C      4.846600    0.051500   -0.181000
C      5.909100    0.926600   -0.403100
C      7.119700    0.207300   -0.254500
C      6.754200   -1.075800    0.051600
O      5.406600   -1.182800    0.098600
