27

C     -4.554100   -3.265800    0.298400
C     -5.324900   -2.035400   -0.077500
C     -4.480400   -1.001900   -0.185700
C     -4.709300    0.357900   -0.513400
C     -5.877400    1.076300   -0.831600
C     -5.485900    2.379400   -1.059800
N     -4.123100    2.460200   -0.887500
C     -3.627300    1.225300   -0.551600
C     -2.227600    0.851600   -0.276200
C     -1.183100    1.781800   -0.333900
C      0.130200    1.349000   -0.058700
S      1.555700    2.315800   -0.071200
C      2.557100    1.000300    0.351700
C      1.824300   -0.157900    0.500800
C      0.419000    0.024000    0.268500
C     -0.647000   -0.906900    0.325100
C     -1.962200   -0.502800    0.055300
C     -3.110500   -1.443500    0.100900
C     -3.140700   -2.757900    0.383700
C      3.980000    1.142300    0.494300
S      4.683300    2.298100    1.576300
C      6.299500    1.824000    1.191700
C      6.298300    0.816400    0.266200
C      7.383600    0.117300   -0.350900
C      7.014700   -0.826700   -1.244300
Si     5.108800   -0.926300   -1.404800
C      4.981400    0.442600   -0.115300
