24

C     -3.534300   -2.937100   -0.059400
C     -4.382000   -1.704400   -0.139200
C     -3.591200   -0.623600   -0.129200
C     -3.919400    0.759000   -0.185000
C     -5.132800    1.468900   -0.267800
C     -4.804200    2.812700   -0.287800
N     -3.433000    2.929000   -0.219400
C     -2.888500    1.678600   -0.156900
C     -1.506700    1.296600   -0.074600
S     -0.204000    2.365700   -0.037800
C      0.935800    1.074600    0.058400
C      2.339800    1.217200    0.127600
C      3.155600    0.080700    0.202300
C      2.555900   -1.176500    0.198000
C      1.162300   -1.315100    0.130600
C      0.312200   -0.182400    0.059000
C     -1.122400   -0.040100   -0.017600
C     -2.171800   -1.038700   -0.043700
C     -2.137800   -2.380200   -0.002800
C      4.619000    0.194300    0.261800
C      5.569100   -0.509200   -0.457400
C      6.903200   -0.140200   -0.117000
C      6.934200    0.828900    0.859000
S      5.365200    1.286400    1.358200
