30

Si    -2.423300   -3.906600   -0.385800
C     -3.492300   -2.409200   -0.089700
C     -2.757900   -1.281500    0.019800
C     -3.293400    0.060200    0.265400
C     -2.420200    1.080700    0.417800
C     -0.951400    0.915400    0.321200
C     -0.144000    2.049900    0.488900
C      1.233300    1.870800    0.378700
O      2.149800    2.862200    0.511400
C      3.374200    2.301600    0.338100
C      4.569600    3.010500    0.402900
C      5.744200    2.284800    0.201400
C      5.721700    0.906800   -0.054300
C      6.919700    0.203700   -0.252800
C      6.913300   -1.168300   -0.507900
C      5.708100   -1.859700   -0.568600
C      4.502300   -1.183300   -0.374700
C      4.484700    0.204200   -0.115400
C      3.270000    0.934400    0.089100
C      1.857500    0.657000    0.116800
C      1.030000   -0.475300   -0.047500
C     -0.371200   -0.348200    0.055200
C     -1.292700   -1.499600   -0.097100
C     -0.932800   -2.782700   -0.314700
C     -4.731900    0.401700    0.343100
C     -5.582300    0.153200   -0.732300
C     -6.924200    0.509700   -0.625300
C     -7.376900    1.107900    0.544000
C     -6.463600    1.331100    1.560500
N     -5.156700    0.999300    1.484700
