26

C     -1.198400    3.399500   -2.685400
C     -2.323500    2.722400   -1.958800
C     -1.852100    1.699200   -1.225200
C     -2.578800    0.739600   -0.390500
C     -4.050500    0.810800   -0.253800
C     -4.786000   -0.098000    0.405800
C     -4.118500   -1.242000    0.964100
C     -4.760500   -2.290400    1.516400
Si    -3.564100   -3.642400    1.957800
C     -2.189300   -2.556700    1.277800
C     -2.641300   -1.354000    0.864200
C     -1.856200   -0.244100    0.252200
C     -0.339800   -0.171100    0.247300
C      0.458100   -0.830900    1.174500
N      1.817900   -0.850600    1.190900
C      2.470000   -0.145400    0.231700
C      1.767100    0.623600   -0.688100
C      0.368600    0.651000   -0.648100
C     -0.413400    1.618500   -1.412700
C     -0.013200    2.590500   -2.251300
C      3.951800   -0.179000    0.256400
C      4.663700   -0.749500    1.313900
C      6.057900   -0.712000    1.302200
C      6.716000   -0.113100    0.238700
C      5.948300    0.406300   -0.792400
N      4.597400    0.389900   -0.804100
