32

C     -1.604400    3.781500    2.110400
C     -2.835200    3.058400    1.671700
C     -2.496300    1.934800    1.016000
C     -3.383000    0.899200    0.451100
C     -4.803200    1.120300    0.354000
C     -5.696700    0.259500   -0.310900
C     -5.024500   -0.785500   -0.934400
C     -5.685000   -1.672600   -1.748800
S     -4.590100   -2.760300   -2.493900
C     -3.237400   -2.027600   -1.726900
C     -3.601600   -1.038700   -0.839300
C     -2.712200   -0.266300   -0.055400
C     -1.267900   -0.470300    0.135500
C     -0.574700   -1.688000    0.189600
C     -1.097200   -2.952200    0.341800
N     -0.049900   -3.845000    0.359600
C      1.145000   -3.167600    0.283200
C      0.847800   -1.826400    0.224700
C      1.769600   -0.758000    0.199800
C      3.175700   -0.881000    0.137500
C      3.935400    0.275200    0.109100
N      3.369500    1.501500    0.123400
C      2.012200    1.578100    0.192100
C      1.113800    0.504300    0.273100
C     -0.351400    0.620800    0.386800
C     -1.031900    1.834000    0.939500
C     -0.516500    2.877600    1.617800
C      5.394600    0.237100    0.046000
C      6.335100   -0.777400   -0.002900
C      7.608700   -0.157900   -0.051700
C      7.373700    1.195100   -0.029300
O      6.041900    1.444400    0.030100
