32

C      2.157100   -4.097800   -0.877000
C      3.393300   -3.259000   -0.887400
C      3.072200   -1.977400   -0.641100
C      3.934200   -0.792200   -0.643200
C      5.270300   -0.858200   -1.079300
C      6.009300    0.303000   -1.281000
C      5.403100    1.535500   -1.094400
C      4.079200    1.602500   -0.647200
C      3.331100    0.450700   -0.322900
C      1.908200    0.526400    0.208700
C      1.404600    1.671600    0.945600
C      2.225000    2.647600    1.574200
C      1.714300    3.773100    2.227100
C      0.346900    3.958400    2.302200
C     -0.499600    2.993300    1.766200
C      0.004700    1.838700    1.122700
C     -0.842400    0.822400    0.673900
C     -2.302700    0.745300    0.712300
C     -2.697700   -0.450000    0.238700
C     -1.496000   -1.302100   -0.119000
C     -0.343100   -0.378400    0.149800
C      1.022200   -0.571000   -0.048300
C      1.631400   -1.861100   -0.437700
C      1.092100   -3.086100   -0.578900
C     -4.068200   -0.810700    0.166900
S     -4.637800   -2.367700    0.665600
C     -6.275500   -2.008700    0.282000
C     -6.317600   -0.758800   -0.227800
C     -7.372800    0.039000   -0.729900
C     -6.929700    1.286700   -1.181300
S     -5.205800    1.599000   -1.042400
C     -5.111800   -0.060400   -0.317900
