29

C     -2.233100   -3.902100    0.498800
C     -3.360100   -2.947600    0.723200
C     -2.912500   -1.686600    0.598500
C     -3.693400   -0.451400    0.562700
C     -5.052800   -0.389100    0.890100
C     -5.727700    0.821300    0.801700
C     -5.017000    1.929700    0.387700
N     -3.705000    1.905600    0.069300
C     -3.037600    0.723300    0.151000
C     -1.579600    0.726800   -0.130800
C     -0.827600    1.816400   -0.602600
C     -1.280600    3.046300   -1.023100
N     -0.195100    3.796500   -1.406800
C      0.958000    3.068600   -1.240200
C      0.594600    1.835100   -0.749500
C      1.467700    0.782200   -0.402000
C      2.883900    0.848800   -0.490800
C      3.676000   -0.214500   -0.058800
C      3.029200   -1.322600    0.488800
C      1.625200   -1.385200    0.563900
C      0.767900   -0.366900    0.082200
C     -0.713700   -0.420100    0.106300
C     -1.471800   -1.690200    0.340900
C     -1.091300   -2.975700    0.209900
C      5.136600   -0.130500   -0.139700
C      5.975900    0.945500    0.098300
N      7.327800    0.722500   -0.086100
C      7.506200   -0.521800   -0.467300
S      6.093600   -1.477600   -0.624000
