30

C     -0.786300    3.751600   -1.507900
C     -2.202600    3.334800   -1.263600
C     -2.225600    2.092800   -0.750000
C     -3.366000    1.270800   -0.352500
C     -4.687300    1.725200   -0.472100
C     -5.737900    0.909400   -0.081600
C     -5.427600   -0.336100    0.416400
N     -4.165300   -0.801600    0.543600
C     -3.122100   -0.020100    0.167500
C     -1.717000   -0.587600    0.329600
C     -1.425600   -1.910900    0.860000
C     -2.368500   -2.881000    1.307500
C     -2.014400   -4.142200    1.809300
C     -0.684600   -4.508800    1.893000
C      0.288100   -3.612500    1.474300
C     -0.066800   -2.339000    0.967500
C      0.994200   -1.493500    0.565100
C      2.420300   -1.585900    0.530800
C      2.896400   -0.399300    0.017400
O      1.841200    0.415000   -0.264700
C      0.686000   -0.239000    0.063500
C     -0.618900    0.250000   -0.071800
C     -0.866900    1.594500   -0.613700
C     -0.023100    2.547200   -1.049900
C      4.222700    0.132400   -0.269100
C      4.415700    1.410000   -0.805200
C      5.703900    1.878000   -1.063600
C      6.774200    1.049100   -0.776600
N      6.640400   -0.189400   -0.259700
C      5.373400   -0.613600   -0.020500
