30

C     -3.012700   -1.033800    3.107700
C     -4.051100   -0.913400    2.035700
C     -3.467300   -0.533200    0.887100
C     -4.094800   -0.101800   -0.361700
C     -5.456000   -0.249700   -0.642500
C     -5.966100    0.236400   -1.841500
C     -5.097000    0.857400   -2.719600
N     -3.777800    1.013100   -2.485500
C     -3.272800    0.534600   -1.311500
C     -1.794200    0.663500   -1.098700
N     -1.115400    1.381300   -2.031800
C      0.225100    1.469700   -1.917700
C      0.998000    0.800800   -0.977300
C      2.426300    0.961000   -1.013100
C      3.365800    0.295300   -0.180500
C      4.807400    0.534600   -0.256300
N      5.291100    0.943800   -1.435200
C      6.600100    1.183200   -1.449500
N      7.428500    1.065300   -0.416600
C      6.834300    0.668700    0.704400
N      5.540900    0.390700    0.850700
C      2.703300   -0.637300    0.637400
C      3.353800   -1.550400    1.439500
S      2.273700   -2.650700    2.182200
C      0.923200   -1.931500    1.414800
C      1.254100   -0.802700    0.697900
C      0.297300   -0.020100   -0.040600
C     -1.138500    0.033900   -0.014900
C     -2.022000   -0.431500    1.076300
C     -1.762300   -0.639100    2.379700
