32

C     -3.328400   -3.483800    1.215100
C     -4.356900   -2.407000    1.056500
C     -3.770200   -1.281900    0.615900
C     -4.353600    0.008100    0.247700
C     -5.688400    0.335000    0.512000
C     -6.118000    1.618100    0.222200
N     -5.314600    2.578700   -0.275600
C     -4.024900    2.226700   -0.525200
C     -3.488100    0.950400   -0.349500
C     -2.042300    0.629200   -0.661400
C     -1.446800   -0.453200   -0.049000
C      0.062100   -0.549900   -0.016200
C      0.741800   -1.250500    0.983200
N      2.092100   -1.357100    1.087600
C      2.825500   -0.729900    0.141800
C      2.268800    0.050100   -0.860600
C      0.877100    0.169900   -0.912900
C      0.198200    1.103800   -1.809300
C      0.693300    1.850000   -2.814000
C     -0.418700    2.623900   -3.449900
C     -1.607900    2.195600   -2.639100
C     -1.232600    1.349800   -1.659800
C      4.259200   -0.847600    0.293300
S      5.251200   -1.791100   -0.767900
C      6.726100   -1.354700    0.060400
C      6.396700   -0.511200    1.066300
C      6.976100    0.242900    2.117400
C      5.922900    0.941800    2.754100
N      4.684700    0.621600    2.200700
C      5.054800   -0.236900    1.200100
C     -2.337900   -1.494700    0.481100
C     -2.077500   -2.782600    0.780800
