29

C     -1.034500    4.055900    0.414700
C     -2.354700    3.439100    0.076600
C     -2.200400    2.117700   -0.111200
C     -3.201100    1.103000   -0.458000
C     -4.494500    1.456600   -0.862200
C     -5.332600    0.465700   -1.332100
N     -4.958600   -0.818100   -1.459200
C     -3.699000   -1.128300   -1.056400
C     -2.783600   -0.249700   -0.470400
C     -1.398200   -0.663200   -0.024200
C     -1.040200   -2.000900    0.343700
C     -1.959400   -3.026400    0.692100
C     -1.559700   -4.330600    1.005600
C     -0.214600   -4.661400    1.008200
C      0.730600   -3.678700    0.734700
C      0.334300   -2.355400    0.431900
C      1.346200   -1.377000    0.230300
C      2.778200   -1.405500    0.219000
C      3.235500   -0.124400    0.006100
N      2.128000    0.675500   -0.099600
C      0.964600   -0.046500    0.049800
C     -0.384200    0.343900    0.011600
C     -0.797500    1.757100    0.067800
C     -0.116400    2.869900    0.398100
C      4.549200    0.428700   -0.112700
N      4.725300    1.718700   -0.318700
C      6.077400    1.993100   -0.396200
C      6.914600    0.909200   -0.247200
S      5.982700   -0.507900   -0.001200
