30

C     -3.845700   -0.123000   -2.492000
C     -4.675000    0.048900   -1.258000
C     -3.879700    0.021700   -0.175200
C     -4.256900   -0.037900    1.239800
C     -5.566500    0.185700    1.676500
C     -5.837600    0.074900    3.026100
N     -4.907300   -0.233400    3.947400
C     -3.643400   -0.436700    3.497500
C     -3.236000   -0.364900    2.162600
C     -1.818100   -0.551400    1.720100
C     -0.818400   -1.008600    2.573100
N      0.495600   -1.126600    2.265400
C      0.923900   -0.690500    1.080400
C      2.328500   -0.776700    0.874400
C      3.051500   -0.315600   -0.255900
C      4.494600   -0.420900   -0.417700
C      5.380900    0.027900    0.569000
C      6.757700   -0.093900    0.387400
C      7.217300   -0.669000   -0.784600
N      6.406800   -1.121800   -1.762700
C      5.073200   -0.991500   -1.552400
C      2.174100    0.309300   -1.141200
C      2.516700    1.017400   -2.268700
N      1.362000    1.568500   -2.770200
C      0.296500    1.239500   -1.962400
C      0.751200    0.392000   -0.978400
C      0.008600   -0.165600    0.113000
C     -1.396300   -0.242600    0.401500
C     -2.485800   -0.106900   -0.590500
C     -2.467200   -0.273300   -1.924900
