27

C     -1.534700   -3.603000    1.413000
C     -2.882500   -3.004100    1.168700
C     -2.732200   -1.766500    0.681000
C     -3.706200   -0.813900    0.299200
C     -5.112200   -0.793500    0.282900
C     -5.453100    0.450200   -0.210200
O     -4.340200    1.187000   -0.494600
C     -3.277300    0.405600   -0.179800
C     -1.899500    0.837400   -0.342200
C     -1.451200    2.075900   -0.828600
C     -2.255600    3.116800   -1.244500
S     -1.350400    4.489800   -1.781300
C      0.151800    3.714600   -1.466200
C     -0.095600    2.466600   -0.974800
C      0.902500    1.519300   -0.594700
C      2.291500    1.652000   -0.638700
C      2.787600    0.452100   -0.161700
N      1.701800   -0.348900    0.147900
C      0.501900    0.282400   -0.108700
C     -0.859600   -0.098100    0.033400
C     -1.295100   -1.430900    0.556900
C     -0.601400   -2.502600    0.984000
C      4.149800    0.023400    0.016000
C      5.294800    0.746300   -0.262200
C      6.489200    0.023800    0.030500
C      6.221500   -1.231900    0.524400
S      4.543000   -1.531900    0.632300
