28

C     -1.868900    2.983900    0.523000
C     -3.264600    2.437800    0.405900
C     -3.204500    1.125600    0.149100
C     -4.222300    0.156800   -0.048200
C     -5.627700    0.177300   -0.054400
C     -6.013300   -1.125300   -0.312500
O     -4.929200   -1.942600   -0.464800
C     -3.841700   -1.148000   -0.301200
C     -2.477400   -1.659700   -0.391600
N     -2.289400   -2.976300   -0.648300
C     -1.018200   -3.442900   -0.730500
C      0.069000   -2.579600   -0.553500
C      1.484100   -2.711100   -0.568900
C      2.031900   -1.459000   -0.319600
O      0.998100   -0.572300   -0.153300
C     -0.178900   -1.238100   -0.292300
C     -1.455000   -0.709800   -0.198000
C     -1.795200    0.697100    0.075300
C     -1.014300    1.768300    0.291000
C      3.414900   -1.057900   -0.230900
S      4.697600   -2.198000   -0.444500
C      5.917000   -1.021000   -0.205200
C      5.374100    0.213600    0.032400
N      6.137700    1.319200    0.254300
C      5.353600    2.411400    0.462200
C      3.954400    2.411300    0.451900
N      3.172200    1.320700    0.232700
C      3.927900    0.201500    0.019300
