31

C     -3.361100    3.645200    0.095100
C     -4.458800    2.672300   -0.167800
C     -3.964900    1.426000   -0.142300
C     -4.650700    0.191700   -0.288400
C     -6.021800   -0.001800   -0.616200
C     -6.325700   -1.337400   -0.728100
S     -4.959700   -2.320600   -0.460000
C     -3.943000   -0.989800   -0.107600
C     -2.495500   -1.049400    0.220700
C     -1.732500   -2.218500    0.503500
C     -2.212400   -3.488500    0.737300
S     -0.971200   -4.641200    1.024100
C      0.247400   -3.449700    0.897500
C     -0.284500   -2.206200    0.648100
C      0.485800   -1.050900    0.531300
C      1.947000   -0.962400    0.601700
C      2.413300    0.290400    0.444300
Si     1.039900    1.525600    0.164300
C     -0.274300    0.149300    0.320300
C     -1.708800    0.186900    0.216200
C     -2.515700    1.450100    0.106300
C     -2.175400    2.742900    0.277400
C      3.797100    0.614700    0.417500
S      4.416800    1.929800    1.371900
C      6.030400    1.683600    0.857700
C      6.121000    0.629800   -0.010600
N      7.299300    0.228800   -0.563700
C      7.103800   -0.836200   -1.388300
C      5.868400   -1.444200   -1.640700
N      4.680200   -1.061500   -1.099300
C      4.842100    0.008800   -0.263800
