31

C     -3.647600   -3.605900    0.014000
C     -4.693300   -2.560900   -0.199800
C     -4.121400   -1.348600   -0.175700
C     -4.727700   -0.064300   -0.202500
C     -6.086800    0.254100   -0.471400
C     -6.294500    1.613600   -0.452000
S     -4.854800    2.473000   -0.133500
C     -3.935900    1.044800    0.069000
C     -2.481400    0.974000    0.340700
C     -1.628600    2.011100    0.771000
C     -2.024400    3.236700    1.259300
S     -0.704500    4.243700    1.689100
C      0.428900    3.031500    1.276800
C     -0.183000    1.882100    0.826200
C      0.536700    0.720500    0.430500
C      1.948800    0.603400    0.401800
C      2.516700   -0.574300   -0.051800
N      1.764200   -1.603400   -0.486200
C      0.412100   -1.463500   -0.440900
C     -0.308600   -0.359600    0.043200
C     -1.770500   -0.271400    0.109600
C     -2.668200   -1.472900   -0.005900
C     -2.402400   -2.781900    0.173500
C      3.964600   -0.761500   -0.119100
S      4.682500   -2.342400    0.100800
C      6.308600   -1.767200   -0.080000
C      6.253000   -0.439000   -0.296500
N      7.310600    0.398800   -0.497100
C      6.659800    1.617800   -0.672800
C      5.258800    1.477200   -0.575900
C      4.987800    0.104900   -0.317700
