29

C      4.564500    3.302500    0.863300
C      5.284000    2.006800    0.632900
C      4.390200    1.039200    0.385900
C      4.570800   -0.345800    0.108800
C      5.783700   -1.080600    0.020500
C      5.548500   -2.407400   -0.266400
S      3.878900   -2.749600   -0.424900
C      3.442500   -1.126300   -0.112000
C      2.045000   -0.620000   -0.080500
C      0.921400   -1.434100   -0.308200
C     -0.417800   -0.946800   -0.277700
C     -0.572600    0.424000   -0.001600
C     -1.852100    0.979600    0.046600
C     -3.029000    0.235300   -0.169500
C     -4.294900    1.005600   -0.075800
C     -4.585300    2.338700    0.185800
C     -5.993500    2.485700    0.142600
C     -6.489200    1.239900   -0.142000
O     -5.476200    0.350500   -0.273600
C     -2.902500   -1.164700   -0.453400
C     -4.001200   -2.039700   -0.692700
C     -3.859900   -3.400600   -0.967800
C     -2.600700   -3.953200   -1.016200
C     -1.493900   -3.139200   -0.789100
C     -1.593500   -1.749500   -0.505900
C      0.541800    1.252800    0.228600
C      1.844300    0.751400    0.193000
C      3.036200    1.595100    0.430100
C      3.122800    2.908200    0.706300
