28

C     -6.226200    0.387400    1.920000
C     -6.793100   -0.198500    0.652900
C     -5.794600   -0.453700   -0.204300
C     -5.852700   -1.020100   -1.548600
C     -4.712100   -1.199200   -2.257000
C     -3.497100   -0.809900   -1.620500
N     -2.266800   -0.929100   -2.206300
C     -1.344700   -0.457700   -1.301700
C      0.033700   -0.243600   -1.124400
N      1.025100   -0.506700   -1.996600
C      2.251900   -0.181200   -1.514900
C      2.542200    0.365900   -0.255700
C      1.466800    0.626800    0.610100
C      0.190500    0.303400    0.144900
N     -1.054500    0.417600    0.725800
C     -1.986600   -0.049000   -0.165500
C     -3.360600   -0.266500   -0.351000
C     -4.523100   -0.063400    0.420600
C     -4.746500    0.424000    1.645200
C      3.907700    0.672000    0.142100
C      4.378600    1.964900    0.504200
C      5.735100    2.264300    0.893200
C      6.771300    1.306100    0.970100
C      6.289400    0.052300    0.622800
C      6.995300   -1.120000    0.595100
O      6.165500   -2.141600    0.220800
C      4.921900   -1.609000    0.010100
C      4.951500   -0.255300    0.233300
