29

Si     0.725400    1.260100   -3.406900
C      1.807200    0.459800   -2.123000
C      1.097500    0.082500   -1.037600
C      1.689500   -0.394100    0.213900
C      0.884700   -0.456800    1.297200
C     -0.572100   -0.187600    1.242100
C     -1.288300   -0.189600    2.440900
C     -2.673800   -0.030200    2.442100
C     -3.407300    0.017400    1.253700
C     -4.838700    0.112500    1.361100
C     -5.739600    0.075800    0.281400
C     -5.073200   -0.143200   -0.914500
C     -5.762800   -0.339000   -2.086300
S     -4.698800   -0.739300   -3.368300
C     -3.325900   -0.657500   -2.338000
C     -3.638300   -0.223000   -1.068600
C     -2.690700   -0.056400    0.003100
C     -1.251900   -0.000100    0.012800
C     -0.366000    0.325600   -1.140300
C     -0.713700    1.022400   -2.243800
C      3.065000   -0.755300    0.402600
S      3.704300   -2.148600   -0.413400
C      5.267600   -1.944600    0.257100
C      5.315900   -0.857300    1.088000
N      6.446900   -0.482400    1.748300
C      6.215900    0.626900    2.503000
C      4.990200    1.296800    2.598500
N      3.847900    0.939100    1.951400
C      4.048700   -0.171100    1.179900
