30

C     -3.952000    3.898800   -0.204800
C     -5.142100    2.998600   -0.264900
C     -4.725500    1.727000   -0.234800
C     -5.519400    0.538300   -0.271800
C     -4.879500   -0.641400   -0.230200
C     -3.399500   -0.787400   -0.148200
C     -2.589900    0.340800   -0.109900
C     -1.170000    0.082400   -0.030300
N     -0.190300    1.060900    0.018700
C      1.005200    0.432800    0.087700
C      2.331800    0.870000    0.158500
C      3.091500   -0.261500    0.206200
C      2.179100   -1.546100    0.162600
C      0.846000   -0.918800    0.086000
C     -0.520300   -1.156200    0.012000
C     -1.300100   -2.335000   -0.024600
C     -0.861000   -3.606700    0.006300
Si    -2.284900   -4.794600   -0.065600
C     -3.444200   -3.326100   -0.137100
C     -2.774600   -2.150500   -0.106600
C      4.516200   -0.214600    0.284300
S      5.434900   -1.720100    0.342400
C      6.970700   -0.936900    0.422900
C      6.750000    0.387100    0.404000
O      7.705700    1.354500    0.451700
C      6.901600    2.475500    0.401800
C      5.531800    2.194400    0.327900
C      5.436200    0.786300    0.329800
C     -3.265700    1.655000   -0.154400
C     -2.809400    2.921500   -0.136800
