31

C     -5.489600    3.229100   -0.616400
C     -6.344700    2.005200   -0.642300
C     -5.570100    0.932700   -0.438800
C     -5.977300   -0.427600   -0.283600
C     -5.030100   -1.321200    0.040800
C     -3.587500   -0.989800    0.195300
C     -3.118300    0.287500   -0.065700
C     -1.645900    0.493900   -0.116000
Si    -0.789800    2.069200   -0.903600
C      0.854700    1.272300   -0.635700
C      2.216100    1.465200   -0.808700
C      2.827300    0.304600   -0.338500
N      1.822500   -0.554500    0.096000
C      0.612800    0.046400   -0.071800
C     -0.696700   -0.441200    0.214700
C     -1.160300   -1.735800    0.676100
C     -0.404700   -2.746100    1.154600
Si    -1.440100   -4.236200    1.583300
C     -2.937100   -3.270700    1.047800
C     -2.615800   -2.029600    0.618200
C      4.226600   -0.065600   -0.279500
C      4.753600   -1.308100   -0.713400
C      6.151100   -1.659300   -0.650800
C      7.165600   -0.812000   -0.146100
C      6.620600    0.393500    0.274800
C      7.290400    1.450900    0.828500
O      6.400400    2.446500    1.128300
C      5.155000    2.012700    0.758600
C      5.241300    0.756300    0.215400
C     -4.162900    1.314700   -0.309600
C     -4.121400    2.659100   -0.362100
