28

C     -3.614800   -3.280400    0.930900
C     -4.683000   -2.294900    0.565200
C     -4.105400   -1.135700    0.226000
C     -4.718300    0.123600   -0.068000
C     -3.908200    1.190000   -0.191700
C     -2.421500    1.121300   -0.103100
C     -1.790600   -0.101100   -0.052600
C     -0.304200   -0.158400   -0.212800
C      0.428000   -1.256800   -0.724500
C     -0.111700   -2.325400   -1.407000
S      1.067000   -3.491400   -1.847200
C      2.343900   -2.520400   -1.247400
C      1.881300   -1.327500   -0.738500
C      2.715700   -0.297400   -0.281500
C      1.991400    0.858700    0.080900
C      0.556300    0.950900    0.070300
C     -0.124500    2.261000    0.200300
C      0.481800    3.450800    0.402000
Si    -0.732900    4.862300    0.330500
C     -2.072200    3.604500    0.017000
C     -1.592200    2.340700   -0.006000
C      4.166600   -0.355300   -0.301600
C      5.022800   -0.395700   -1.385000
C      6.392400   -0.447100   -0.993400
C      6.536100   -0.439000    0.375800
S      5.028000   -0.366700    1.179300
C     -2.652400   -1.252800    0.271800
C     -2.358100   -2.478900    0.740400
