31

C     -3.626700   -4.217300    0.511600
C     -4.897300   -3.564700    0.066300
C     -4.661200   -2.266400   -0.159900
C     -5.599200   -1.236100   -0.485500
C     -5.143200    0.027200   -0.517000
C     -3.721800    0.400400   -0.294300
C     -2.751400   -0.567300   -0.130800
C     -1.279700   -0.169100   -0.118600
C     -0.266900   -1.117400   -0.350000
C      1.095200   -0.752900   -0.280700
S      2.454600   -1.783200   -0.486400
C      3.583300   -0.518900   -0.222600
C      2.917800    0.672100    0.001400
C      1.487800    0.555400   -0.030800
C      0.479300    1.533000    0.111300
C     -0.880900    1.177600    0.036900
C     -1.932200    2.195400    0.008000
C     -1.852600    3.533300    0.103700
C     -3.216300    4.129200   -0.064400
C     -4.070600    2.914100   -0.266700
C     -3.312900    1.803400   -0.221100
C      5.007500   -0.736700   -0.257100
S      5.790100   -2.293200   -0.167800
C      7.393500   -1.631300   -0.263000
C      7.273700   -0.291800   -0.355900
C      8.078200    0.851900   -0.465100
C      7.176200    1.921200   -0.517900
O      5.847200    1.546800   -0.449600
C      5.987000    0.192700   -0.351600
C     -3.250200   -1.949200    0.055300
C     -2.653800   -3.071500    0.497900
