28

C     -4.333600    3.740700    0.493200
C     -5.431100    2.718300    0.428700
C     -4.885900    1.499100    0.331600
C     -5.525600    0.219600    0.242800
C     -4.742100   -0.871400    0.152700
C     -3.251400   -0.828000    0.139800
C     -2.606300    0.391400    0.224000
C     -1.159000    0.389500    0.208100
O     -0.347600    1.512300    0.283200
C      0.928700    1.049000    0.234600
C      2.224900    1.582500    0.260400
C      3.070600    0.473700    0.168100
N      2.271500   -0.663600    0.091700
C      0.957900   -0.289100    0.134100
C     -0.363200   -0.746200    0.114400
C     -0.942400   -2.029400    0.024800
C     -0.317600   -3.217300   -0.070700
Si    -1.555800   -4.607200   -0.161100
C     -2.920800   -3.332000   -0.050900
C     -2.432300   -2.074500    0.037700
C      4.546900    0.417200    0.147600
C      5.303900    1.597200    0.226500
C      6.702300    1.565900    0.208800
C      7.371600    0.350700    0.111500
C      6.642500   -0.831400    0.032200
C      5.243200   -0.798200    0.050100
C     -3.432600    1.596000    0.323100
C     -3.095600    2.893200    0.416400
