27

C     -4.671500    2.613100    1.396200
C     -5.416200    1.449600    0.826300
C     -4.534800    0.555500    0.361500
C     -4.802100   -0.702200   -0.264700
C     -3.750000   -1.439400   -0.654100
C     -2.334200   -1.025600   -0.472500
C     -2.016400    0.185800    0.129700
C     -0.585100    0.499200    0.261000
S      0.051900    1.953700    0.980300
C      1.680700    1.450500    0.697900
C      3.014000    1.883700    0.891500
C      3.792800    0.867000    0.366600
O      2.997900   -0.142100   -0.126100
C      1.711800    0.247600    0.093000
C      0.459800   -0.320500   -0.169700
C      0.165600   -1.552600   -0.783000
C      0.949600   -2.516100   -1.281400
C      0.088300   -3.617000   -1.818300
C     -1.298800   -3.108000   -1.537300
C     -1.239700   -1.905900   -0.934600
C      5.228500    0.800700    0.307400
C      6.158600    1.721600    0.754800
N      7.487900    1.389200    0.563400
C      7.553200    0.217500   -0.028200
S      6.057200   -0.538300   -0.382100
C     -3.161000    1.018000    0.568300
C     -3.238700    2.218400    1.171900
