28

C      5.049200    0.507300   -2.654000
C      5.826600    0.380700   -1.375200
C      4.975000    0.256300   -0.348100
C      5.275600    0.108200    1.054700
C      4.267300   -0.004300    1.940300
C      2.870800    0.024000    1.479600
C      1.762000   -0.087600    2.320300
C      1.720600   -0.239900    3.682300
O      0.420100   -0.306800    4.102300
C     -0.377100   -0.195600    2.996800
C      0.402500   -0.060600    1.876900
C     -0.004300    0.082600    0.547500
C      1.103000    0.195400   -0.331200
C      2.476000    0.169300    0.102800
C      3.601600    0.289400   -0.845000
C      3.624200    0.434400   -2.179900
C     -1.405900    0.094700    0.137100
C     -1.959600    1.295300   -0.161900
C     -3.344200    1.405000   -0.579600
C     -4.059200    2.676600   -0.922300
C     -5.432400    2.166300   -1.268800
C     -5.470700    0.830500   -1.138800
C     -4.177600    0.350200   -0.710800
C     -3.667000   -0.972500   -0.422000
C     -4.350700   -2.129800   -0.506000
Si    -3.262800   -3.577800   -0.043400
C     -1.859200   -2.377400    0.245900
C     -2.246600   -1.107400    0.009100
