28

C     -5.073700    2.065600    0.957200
C     -5.662200    0.882500    0.251100
C     -4.673800    0.085100   -0.177000
C     -4.796000   -1.152800   -0.898800
C     -3.684500   -1.821800   -1.248100
C     -2.357300   -1.294600   -0.896700
C     -1.172100   -1.945300   -1.232900
C     -0.990900   -3.124200   -1.909800
O      0.345100   -3.392800   -2.019500
C      1.019700   -2.374300   -1.406000
C      0.124900   -1.462300   -0.908300
C      0.368900   -0.277200   -0.213100
C      1.609700    0.242200    0.130600
O      2.833800   -0.292400   -0.137400
C      3.790000    0.546500    0.381500
C      3.151000    1.620700    0.982300
C      1.755500    1.430000    0.824000
C      0.600700    2.114200    1.180900
N     -0.622900    1.615200    0.849700
C     -0.794800    0.453400    0.170400
C     -2.112400   -0.058400   -0.171700
C     -3.375200    0.650600    0.195700
C     -3.600300    1.801000    0.854800
C      5.203300    0.302100    0.288100
N      6.097200    1.127200    0.796900
C      7.367700    0.639800    0.557600
C      7.428500   -0.551700   -0.131100
S      5.841900   -1.087700   -0.495900
