31

C     -4.520700   -2.850100   -0.646200
C     -5.524300   -1.801900   -0.291100
C     -4.885100   -0.664500    0.011300
C     -5.473900    0.585400    0.407500
C     -4.678300    1.634100    0.678300
C     -3.206400    1.524600    0.574500
C     -2.334100    2.590600    0.845800
C     -2.768300    3.842900    1.236500
S     -1.478400    4.946400    1.496800
C     -0.304500    3.759800    1.088300
C     -0.905900    2.576700    0.771000
C     -0.276000    1.336200    0.373700
C     -1.132300    0.260700    0.097600
N     -0.285700   -0.772800   -0.253400
C      1.042100   -0.405100   -0.209200
C      2.179500   -1.182100   -0.497300
C      3.467300   -0.628600   -0.395300
C      4.676800   -1.406600   -0.687700
C      4.837700   -2.725200   -1.090100
C      6.222100   -2.986600   -1.236900
C      6.887800   -1.827100   -0.923000
N      5.952700   -0.883900   -0.594500
C      3.527700    0.735400    0.010100
N      4.650300    1.476100    0.177300
S      4.173400    2.998200    0.657400
N      2.522600    2.800900    0.678900
C      2.340400    1.545900    0.310600
C      1.050000    0.921900    0.186300
C     -2.551300    0.312700    0.184600
C     -3.434200   -0.843600   -0.111700
C     -3.216000   -2.115600   -0.493700
