32

Si    -1.180000    0.358800   -3.648600
C     -2.253800    0.523000   -2.139200
C     -1.546800    0.330200   -1.005900
C     -2.138300    0.195600    0.321000
C     -1.346500   -0.206500    1.336000
C      0.107100   -0.433400    1.168400
C      0.843400   -0.923900    2.243700
N      2.180300   -1.098900    2.244800
C      2.843800   -0.659000    1.146400
C      4.250500   -0.806900    1.271600
N      5.027100   -1.362700    2.268200
C      6.365700   -1.261700    1.946100
C      6.480000   -0.615300    0.729500
C      5.167100   -0.357000    0.346700
C      4.639400    0.326800   -0.768600
C      5.306800    0.974100   -1.762400
N      4.314100    1.572800   -2.504300
C      3.072300    1.298200   -1.951300
C      3.237500    0.435700   -0.886000
C      2.225300   -0.084900   -0.008500
C      0.792300   -0.109300   -0.030200
C     -0.088000    0.124200   -1.208200
C      0.252200   -0.005000   -2.507700
C     -3.548500    0.436400    0.630900
C     -4.059900    1.681700    1.067200
C     -5.441900    1.913700    1.363500
C     -6.449300    0.929900    1.252300
C     -5.938900   -0.294000    0.817300
C     -6.730800   -1.399700    0.630400
S     -5.805600   -2.743300    0.087600
C     -4.341800   -1.840200    0.104900
C     -4.549600   -0.543500    0.515400
