32

C     -4.984300   -2.791300    1.323200
C     -6.094000   -1.941100    0.774700
C     -5.571200   -0.862600    0.175500
C     -6.257900    0.218900   -0.485900
C     -5.548400    1.224900   -1.033700
C     -4.070200    1.237100   -0.966700
C     -3.264000    2.253200   -1.515400
C     -3.746300    3.361300   -2.182100
S     -2.487700    4.411000   -2.727600
C     -1.257600    3.397700   -2.078400
C     -1.839400    2.318300   -1.481700
C     -1.155000    1.247500   -0.826500
C      0.203600    0.988600   -0.608200
C      1.441600    1.557300   -0.875600
N      2.579500    0.939100   -0.460000
C      2.556600   -0.238100    0.221300
C      1.348600   -0.864800    0.523800
C      0.200900   -0.213700    0.088700
O     -1.072600   -0.668200    0.288200
C     -1.929300    0.239500   -0.281000
C     -3.335500    0.189100   -0.322300
C     -4.114400   -0.904000    0.272500
C     -3.757100   -2.015900    0.935100
C      3.862100   -0.809800    0.618500
C      4.033900   -2.038500    1.340400
C      5.291600   -2.620100    1.741000
C      6.545000   -2.045700    1.470300
C      6.384900   -0.859400    0.773600
C      7.417600   -0.058000    0.360000
N      6.850200    1.012400   -0.289700
C      5.477200    0.894900   -0.290300
C      5.141100   -0.266800    0.367300
