30

C     -5.414300    3.080000    0.218700
C     -6.134300    1.772400    0.318100
C     -5.239900    0.775000    0.318900
C     -5.506100   -0.635500    0.399600
C     -4.481300   -1.505100    0.387300
C     -3.081500   -1.036700    0.292300
C     -1.984900   -1.921900    0.277000
C     -2.078700   -3.297900    0.346800
S     -0.537300   -4.076700    0.303300
C      0.295900   -2.577800    0.189200
C     -0.614700   -1.560900    0.188600
C     -0.351800   -0.162600    0.109000
C      0.937800    0.343700    0.017900
O      2.197900   -0.166400   -0.023700
C      3.052000    0.909200   -0.119000
C      2.328700    2.091100   -0.136900
C      0.974800    1.691000   -0.047500
S     -0.623900    2.367900    0.003900
C     -1.371000    0.778800    0.117700
C     -2.736700    0.366200    0.208100
C     -3.879400    1.311700    0.222800
C     -3.975000    2.652000    0.164200
C      4.481800    0.745200   -0.186100
S      5.585500    2.075200   -0.304900
C      6.974100    1.063100   -0.330800
C      6.553300   -0.217300   -0.249900
C      7.243500   -1.452000   -0.229100
C      6.376800   -2.545200   -0.133600
S      4.661400   -2.174900   -0.061000
C      5.176500   -0.439700   -0.167800
