32

C     -5.642000    3.330500    1.116700
C     -6.506600    2.140100    0.812100
C     -5.727000    1.096800    0.498000
C     -6.109800   -0.242700    0.137500
C     -5.149700   -1.144100   -0.142500
C     -3.705500   -0.791900   -0.089000
C     -2.745500   -1.757200   -0.389000
C     -1.370100   -1.452200   -0.346800
C     -0.907900   -0.149400    0.005700
C     -1.904800    0.805100    0.299700
C     -3.276600    0.506200    0.258900
C     -4.325900    1.493000    0.565200
C     -4.254400    2.785600    0.922700
C      0.571500    0.149100    0.045900
C      1.141300    1.419200    0.406600
N      0.478600    2.532700    0.771200
S      1.575400    3.713500    1.098600
N      2.975800    2.905600    0.799300
C      2.657700    1.654200    0.419100
C      3.570200    0.618800    0.069300
C      2.962000   -0.608100   -0.259400
C      1.556600   -0.845300   -0.276800
C      1.055500   -2.185100   -0.642300
C      1.734400   -3.295800   -0.983500
C      0.779400   -4.415100   -1.266100
C     -0.546600   -3.762300   -1.030800
C     -0.368800   -2.478200   -0.672600
C      5.029000    0.796000    0.074300
C      5.752800    1.930600    0.099400
C      7.160300    1.625900    0.102100
C      7.327500    0.298400    0.073300
C      5.987500   -0.375500    0.043100
