32

C     -5.467300   -2.756700    2.472900
C     -6.476400   -1.838600    1.844200
C     -5.842000   -0.950100    1.067600
C     -6.396900    0.114600    0.274600
C     -5.569000    0.900100   -0.439300
C     -4.094400    0.699400   -0.432800
C     -3.285900    1.547900   -1.194700
C     -1.883400    1.370100   -1.199100
C     -0.940800    2.140500   -1.912800
C     -1.201800    3.211200   -2.741900
N      0.006200    3.673600   -3.239000
C      1.047500    2.917700   -2.742100
C      0.451800    1.991400   -1.939000
C      1.036100    0.946200   -1.165100
C      2.408400    0.663600   -1.081600
C      2.622100   -0.412600   -0.242600
S      1.147500   -1.029200    0.392400
C      0.168200    0.144600   -0.436200
C     -1.269900    0.330400   -0.433500
C     -2.103600   -0.514900    0.328700
C     -3.495900   -0.338900    0.334000
C     -4.406100   -1.195000    1.113400
C     -4.167100   -2.239300    1.923500
C      3.878800   -1.036600    0.134000
C      4.181000   -2.415100   -0.012700
C      5.442900   -3.008100    0.348200
C      6.532600   -2.290200    0.892400
C      6.212900   -0.945800    1.029200
C      7.035500    0.025800    1.537200
N      6.322100    1.205500    1.512600
C      5.060900    0.992600    0.994400
C      4.967600   -0.341200    0.674300
