29

C     -6.083000   -0.100800   -3.132100
C     -6.967300   -0.048200   -1.919100
C     -6.207100   -0.080500   -0.816400
C     -6.613900   -0.051000    0.563300
C     -5.671900   -0.093100    1.524100
C     -4.220200   -0.169500    1.200700
C     -3.294500   -0.209900    2.252200
C     -1.919200   -0.282400    1.952400
S     -0.607400   -0.341500    3.102500
C      0.514600   -0.407300    1.871000
C      1.921900   -0.479100    1.843500
C      2.271800   -0.496700    0.534500
C      1.049300   -0.452300   -0.396200
C     -0.041200   -0.388300    0.618700
C     -1.455100   -0.315200    0.625900
C     -2.399600   -0.273500   -0.425200
C     -3.770400   -0.201200   -0.141100
C     -4.800900   -0.154900   -1.191400
C     -4.706200   -0.167800   -2.531000
C      3.634400   -0.590300    0.008200
C      3.993500   -1.790100   -0.625300
C      5.275400   -1.966100   -1.135500
C      6.213500   -0.944100   -1.018500
C      5.884800    0.269200   -0.395400
C      6.844400    1.290400   -0.292800
C      6.536900    2.507800    0.312400
C      5.263100    2.722000    0.820800
C      4.298300    1.716300    0.727900
C      4.581100    0.465400    0.127600
