29

Si     1.244900    3.543100    0.997300
C      2.187200    1.943000    0.930600
C      1.377700    0.892900    0.675600
C      1.836100   -0.490900    0.567000
C      0.915100   -1.445400    0.322100
C     -0.524000   -1.148600    0.169200
C     -1.398200   -2.192700   -0.070200
N     -2.723500   -2.037300   -0.234600
C     -3.240300   -0.790400   -0.162300
C     -4.625000   -0.610600   -0.332500
C     -5.509400   -1.668200   -0.575300
N     -6.850600   -1.542000   -0.746000
C     -7.357800   -0.297200   -0.673200
C     -6.588200    0.827300   -0.438500
C     -5.205400    0.664400   -0.266800
C     -4.353000    1.726300   -0.028500
N     -3.021800    1.594400    0.139300
C     -2.451900    0.362500    0.078500
C     -1.061400    0.159200    0.247400
C     -0.061200    1.243000    0.515500
C     -0.302000    2.565400    0.647900
C      3.198800   -0.915500    0.655300
S      3.808000   -1.670500    2.099800
C      5.401200   -1.851500    1.455600
C      5.469200   -1.347900    0.185900
C      6.563300   -1.272600   -0.732700
C      6.268200   -0.699400   -1.920300
Si     4.428400   -0.154300   -1.996200
C      4.223200   -0.824000   -0.245100
