29

C     -5.260500   -0.593600    1.888900
C     -5.884800    0.275800    0.843800
C     -4.922100    0.763700    0.050300
C     -5.059900    1.757300   -0.974400
C     -3.945900    2.267400   -1.522500
C     -2.593600    1.771600   -1.154100
C     -1.499100    2.416000   -1.717100
C     -0.203900    1.966700   -1.461100
C      0.076700    0.801200   -0.717700
C      1.458200    0.361900   -0.535400
C      2.599200    1.077700   -0.942500
N      3.895600    0.698700   -0.787900
C      4.151100   -0.483800   -0.185700
C      3.121900   -1.294300    0.260000
C      1.786700   -0.863200    0.085600
C      0.695400   -1.677400    0.499900
N      0.807400   -2.902200    1.048100
S     -0.724700   -3.472300    1.266600
N     -1.590200   -2.186800    0.710900
C     -0.732000   -1.216100    0.349400
C     -1.065600    0.088500   -0.191300
C     -2.389000    0.653200   -0.297000
C     -3.615600    0.225700    0.434900
C     -3.800300   -0.495700    1.554900
C      5.581900   -0.830300   -0.066000
N      6.536000   -0.420600   -0.885400
C      7.763000   -0.904700   -0.482900
C      7.749900   -1.686400    0.648800
S      6.148800   -1.820000    1.237100
