33

C     -5.911600    2.264500   -0.726900
C     -6.662000    1.056300   -0.258000
C     -5.787300    0.089000    0.048000
C     -6.069900   -1.281700    0.372200
C     -5.046100   -2.150600    0.428800
C     -3.642100   -1.704200    0.248200
C     -2.623200   -2.635200    0.219800
N     -1.311100   -2.331200    0.102500
C     -0.902700   -1.049200    0.119400
C      0.534800   -0.771000    0.055100
C      1.591500   -1.713100   -0.108900
C      1.486100   -3.078200   -0.232100
O      2.722500   -3.644200   -0.342700
C      3.638500   -2.637000   -0.292000
C      3.001400   -1.425700   -0.177700
C      3.595500   -0.162500   -0.093900
C      2.595400    0.817600    0.107900
C      1.167200    0.534500    0.170500
C      0.166700    1.489200    0.404400
C      0.352800    2.817300    0.696100
O     -0.845800    3.395200    0.986300
C     -1.799000    2.426500    0.870400
C     -1.241500    1.248600    0.433900
C     -1.886600   -0.005200    0.217300
C     -3.277200   -0.344100    0.137300
C     -4.416000    0.574700   -0.109200
C     -4.482100    1.808300   -0.639900
C      5.019900    0.136300   -0.175800
C      5.850700   -0.383400   -1.167800
C      7.198400   -0.029500   -1.181800
C      7.683200    0.839500   -0.214000
C      6.793600    1.327400    0.726000
N      5.481900    1.004000    0.760000
