31

C      5.939300    1.304200   -0.167600
C      6.398300    0.074000    0.552600
C      5.330200   -0.661900    0.887900
C      5.296500   -1.831100    1.720600
C      4.102800   -2.305000    2.114900
C      2.829200   -1.697100    1.648100
C      1.627600   -2.172000    2.167400
N      0.414400   -1.720700    1.801200
C      0.398900   -0.821100    0.792000
C     -0.907000   -0.300400    0.401300
O     -2.037100   -0.595100    1.087700
C     -3.073700    0.075100    0.469000
C     -2.563200    0.805900   -0.603300
C     -1.181100    0.558600   -0.634000
C     -0.105400    0.946800   -1.462800
C     -0.104800    1.593400   -2.634800
C      1.274600    1.548100   -3.216900
C      2.036300    0.757500   -2.189900
C      1.256400    0.477400   -1.129700
C      1.543500   -0.320100    0.107500
C      2.789500   -0.667700    0.657500
C      4.107100   -0.046200    0.373900
C      4.446400    1.135200   -0.171200
C     -4.422900   -0.011100    0.936900
S     -4.828400   -0.142700    2.621600
C     -6.541300   -0.137300    2.326300
C     -6.721500   -0.066200    0.992600
C     -7.753300   -0.042100    0.024100
C     -7.130000    0.016200   -1.240200
N     -5.740700    0.029300   -1.128800
C     -5.575800   -0.007000    0.228200
