24

Si     0.579600   -3.299900    1.631400
C     -0.749800   -2.058800    1.277300
C     -0.253100   -0.924400    0.739200
C     -1.071700    0.226800    0.337900
C     -0.452600    1.283600   -0.233300
C      1.007900    1.335400   -0.452500
C      1.578500    2.458900   -1.043800
N      2.891500    2.646900   -1.285000
C      3.691300    1.628500   -0.893600
C      5.098400    1.544400   -1.005700
C      5.479200    0.337400   -0.470100
N      4.344900   -0.303900   -0.041300
C      3.223900    0.455300   -0.292000
C      1.850100    0.271300   -0.062300
C      1.228400   -0.926500    0.545700
C      1.821400   -2.072300    0.944200
C     -2.479100    0.329900    0.510400
S     -3.276200    0.567400    2.035200
C     -4.868300    0.570200    1.325800
C     -4.723700    0.397500   -0.005000
C     -5.495400    0.299100   -1.173100
C     -4.565400    0.118800   -2.205500
O     -3.247600    0.094800   -1.786100
C     -3.429000    0.268000   -0.446500
