25

C     -3.027000    2.418300    1.683500
C     -4.278400    1.663700    1.331500
C     -3.951700    0.559700    0.646500
C     -4.815700   -0.461100    0.105000
C     -4.276700   -1.502800   -0.559500
C     -2.807600   -1.626100   -0.749100
C     -2.250800   -2.703600   -1.436500
N     -0.928600   -2.909600   -1.663900
C     -0.116100   -1.949200   -1.154400
C      1.290500   -1.833700   -1.196500
C      1.621100   -0.668900   -0.526900
O      0.474300   -0.064700   -0.075500
C     -0.578300   -0.841400   -0.456300
C     -1.933700   -0.643300   -0.231100
C     -2.502000    0.491700    0.491600
C     -1.947600    1.559700    1.085600
C      2.858100    0.028600   -0.208000
C      2.891300    1.244300    0.519500
C      4.079700    1.941600    0.842100
C      5.353300    1.490200    0.467900
C      5.396600    0.279700   -0.262700
N      6.514500   -0.312800   -0.709200
S      6.034500   -1.689600   -1.497300
N      4.391000   -1.598400   -1.309300
C      4.129100   -0.475900   -0.613900
