32

C      6.308800   -1.168600   -2.288000
C      6.948800   -0.119700   -1.435600
C      6.018600    0.433500   -0.646800
C      6.220800    1.400300    0.395000
C      5.173100    1.738100    1.163100
C      3.818800    1.187500    0.932700
N      2.901900    1.647300    1.803200
C      1.634300    1.215300    1.627700
C      1.173200    0.360400    0.615000
C      2.145500   -0.014100   -0.356100
C      1.668400   -0.649100   -1.521600
C      0.318500   -0.931600   -1.723000
C     -0.616600   -0.645700   -0.732600
C     -2.044400   -0.879700   -1.048300
C     -3.042700   -0.650600   -0.169700
C     -4.382300   -0.842400   -0.630900
S     -4.988700   -2.424500   -1.097600
C     -6.577700   -1.840100   -1.471000
C     -6.591100   -0.518300   -1.228700
O     -7.648500    0.323000   -1.386100
C     -7.060600    1.510200   -0.986200
C     -5.717300    1.387000   -0.607700
C     -5.415500    0.023700   -0.774900
C     -2.673300   -0.224600    1.180100
C     -3.544300   -0.132800    2.208000
Si    -2.685200    0.219200    3.815100
C     -1.068200    0.183700    2.873700
C     -1.250700    0.027800    1.543500
C     -0.190600   -0.069000    0.488900
C      3.518200    0.315800   -0.141200
C      4.700000   -0.144300   -0.925000
C      4.873900   -1.114000   -1.842300
