28

C     -5.240500    0.285000    2.764300
C     -6.101400    0.152200    1.546500
C     -5.320500    0.032000    0.465100
C     -5.728800   -0.118700   -0.906700
C     -4.783600   -0.224900   -1.856600
C     -3.339600   -0.191100   -1.531800
N     -2.530200   -0.309200   -2.597200
C     -1.195600   -0.290200   -2.406800
C     -0.612800   -0.151500   -1.133900
C     -1.485500   -0.027600   -0.030000
S     -0.580700    0.134900    1.430600
C      0.918000    0.046800    0.650700
C      2.139000    0.134000    1.389400
C      3.318400    0.054400    0.731000
C      4.509000    0.177700    1.513800
C      5.440700    1.202900    1.552300
N      6.514800    1.026100    2.403700
C      6.397200   -0.135900    3.004900
S      5.021500   -1.069600    2.592100
C      3.291100   -0.114900   -0.733600
C      4.393800   -0.221100   -1.505900
Si     3.963900   -0.434900   -3.301900
C      2.157300   -0.363600   -2.816800
C      1.998300   -0.200500   -1.488600
C      0.776700   -0.109000   -0.719200
C     -2.886300   -0.045800   -0.208000
C     -3.906700    0.072700    0.853500
C     -3.853100    0.219500    2.189000
