25

C     -2.336500    2.950100   -1.700500
C     -3.742000    2.416000   -1.718400
C     -3.748000    1.167800   -1.232000
C     -4.858200    0.259900   -1.067300
C     -4.633500   -0.969600   -0.561800
C     -3.276100   -1.417900   -0.163800
N     -3.196000   -2.678700    0.328400
C     -1.987700   -3.159800    0.718400
C     -0.842100   -2.365000    0.621600
C      0.536500   -2.529800    0.923600
C      1.162600   -1.340200    0.607400
O      0.248000   -0.460700    0.106700
C     -0.969500   -1.076100    0.113500
C     -2.180300   -0.549700   -0.305900
C     -2.389700    0.783300   -0.858400
C     -1.556300    1.800200   -1.126300
C      2.533900   -0.890400    0.666900
C      3.660600   -1.749000    0.562300
C      5.031300   -1.304600    0.622700
C      5.425100    0.041100    0.801300
C      4.308600    0.857700    0.912600
C      4.301800    2.211800    1.111400
O      3.009500    2.652600    1.190600
C      2.192000    1.565000    1.038800
C      2.945400    0.433500    0.850700
