29

Si     0.597700   -2.153900    3.021600
C     -0.835700   -1.763100    1.904300
C     -0.458300   -1.001400    0.854900
C     -1.389200   -0.387400   -0.094000
C     -0.891800    0.540900   -0.938800
C      0.549200    0.861800   -1.020500
C      0.969200    1.846000   -1.899500
N      2.259700    2.155900   -2.139300
C      3.211200    1.414500   -1.572200
C      4.513600    1.763600   -1.954600
C      5.680300    1.095500   -1.562800
C      5.471900   -0.037500   -0.761700
N      6.443600   -0.855800   -0.331800
S      5.695800   -2.075800    0.497200
N      4.118500   -1.603500    0.364400
C      4.083900   -0.441800   -0.313600
C      2.911400    0.345300   -0.669200
C      1.536700    0.156500   -0.298400
C      1.000500   -0.699900    0.798900
C      1.664400   -1.121500    1.895100
C     -2.797500   -0.649000   -0.174000
S     -3.353200   -2.212700   -0.684500
C     -5.004900   -1.781100   -0.537400
C     -5.146300   -0.483000   -0.124800
N     -6.360700    0.104600    0.062500
C     -6.211500    1.395000    0.470000
C     -4.985400    2.041500    0.668600
N     -3.760900    1.476400    0.484400
C     -3.878200    0.176000    0.080200
