28

C     -3.985900    3.237000   -0.903000
C     -5.313300    2.664800   -0.524900
C     -5.140100    1.417700   -0.068400
C     -6.161000    0.483600    0.311900
C     -5.793400   -0.763900    0.641600
C     -4.375100   -1.186200    0.671000
N     -4.220800   -2.483700    1.013400
C     -2.956000   -2.930200    1.116700
C     -1.816800   -2.150100    0.942500
C     -0.547300   -2.737200    1.123600
C      0.611000   -1.955800    1.000300
C      2.003300   -2.213400    1.125200
C      2.678800   -1.030000    0.902200
N      1.729200   -0.063100    0.677300
C      0.465300   -0.607000    0.711800
C     -0.788600   -0.004100    0.525300
C     -1.974300   -0.781400    0.604800
C     -3.301800   -0.292400    0.403000
C     -3.715800    1.064100   -0.060300
C     -3.046400    2.106000   -0.588100
C      4.082100   -0.751000    0.912300
S      5.111600   -1.373500    2.157300
C      6.519800   -0.608000    1.514300
C      6.213200    0.083000    0.374100
C      7.047400    0.848800   -0.501000
C      6.411000    1.386600   -1.564500
Si     4.556300    0.931100   -1.564600
C      4.833100   -0.013900    0.043400
