30

C     -6.253000   -1.213300    1.406800
C     -6.546700    0.204000    1.011800
C     -5.409600    0.799500    0.626900
C     -5.213300    2.181700    0.236900
C     -3.967200    2.615600   -0.038900
C     -2.890600    1.673100    0.030900
O     -1.578000    1.976200   -0.196600
C     -0.846200    0.829400   -0.077500
C      0.572400    0.744500   -0.210400
C      1.614900    1.792100   -0.450700
C      2.906800    0.987100   -0.455500
C      2.592200   -0.307300   -0.247000
C      1.163100   -0.467000   -0.094700
C      0.345200   -1.641400    0.126500
C      0.715600   -2.928800    0.187700
C     -0.502600   -3.790000    0.338600
C     -1.620700   -2.784800    0.344700
C     -1.121600   -1.545200    0.257700
C     -1.710600   -0.244100    0.191100
C     -2.998900    0.309100    0.344700
C     -4.297400   -0.161800    0.702600
C     -4.768900   -1.317600    1.187200
C      4.232800    1.457300   -0.641500
S      4.605900    3.143400   -0.902200
C      6.316800    2.872400   -1.024400
C      6.530500    1.550700   -0.867300
C      7.591400    0.634000   -0.843100
C      6.986200   -0.608200   -0.620800
O      5.610300   -0.555900   -0.500200
C      5.407300    0.784100   -0.660400
