31

C     -6.297000   -0.996900    1.402400
C     -6.787600   -0.237200    0.202600
C     -5.737500    0.255400   -0.463800
C     -5.736800    0.972400   -1.722100
C     -4.559400    1.243200   -2.318800
C     -3.350100    0.847300   -1.651800
S     -1.823100    1.019400   -2.392800
C     -1.008100    0.421000   -1.012600
C     -1.889400    0.157400    0.039700
C     -3.249500    0.257900   -0.385300
C     -4.492100   -0.119600    0.225000
C     -4.804300   -0.908200    1.259300
C     -1.307900   -0.202600    1.299600
C     -1.806900   -0.184000    2.547500
C     -0.747300   -0.575800    3.535400
C      0.461800   -0.735100    2.661300
C      0.129000   -0.495900    1.377200
C      1.018500   -0.344800    0.208400
C      2.376200   -0.663800    0.239100
C      3.154300   -0.379600   -0.877500
N      2.663300    0.206100   -1.995000
C      1.327700    0.450500   -2.026500
C      0.456200    0.197800   -0.970400
C      4.579000   -0.651500   -0.894800
S      5.255600   -2.211900   -0.554200
C      6.899400   -1.631600   -0.643300
C      6.855100   -0.317100   -0.949300
C      7.698200    0.802800   -1.169000
C      6.858400    1.919100   -1.394400
N      5.511800    1.561400   -1.359800
C      5.596300    0.220400   -1.093400
