25

C     -5.876300    1.516700    0.643400
C     -6.291800    0.084900    0.472900
C     -5.200500   -0.675900    0.312700
C     -5.127500   -2.107400    0.116400
C     -3.919900   -2.689400   -0.025800
C     -2.751900   -1.855300    0.024300
S     -1.189900   -2.494200   -0.144200
C     -0.432700   -0.946300    0.023600
C     -1.388600    0.067300    0.210200
C     -0.905500    1.392600    0.362400
C      0.462800    1.685400    0.329400
C      1.404400    0.676500    0.144300
C      2.779700    0.952800    0.108800
C      3.681300   -0.090500   -0.078700
N      3.285600   -1.374100   -0.230000
C      1.956600   -1.628400   -0.194100
C      0.970300   -0.651700   -0.011000
C      5.134800    0.092900   -0.130500
C      6.138200   -0.850400   -0.309100
C      7.389500   -0.192100   -0.286900
C      7.136400    1.144400   -0.095200
N      5.778100    1.306900   -0.002300
C     -2.723700   -0.475600    0.208200
C     -3.999000    0.167300    0.362200
C     -4.376500    1.439100    0.553300
