27

C     -6.519300    1.382000   -0.604300
C     -6.880600    0.035200   -0.036200
C     -5.759500   -0.652200    0.223200
C     -5.612600   -1.985500    0.773700
C     -4.375400   -2.495200    0.956600
C     -3.247500   -1.683700    0.593000
S     -1.626100   -2.210200    0.774100
C     -1.049700   -0.754500    0.155800
C     -2.016600    0.158300   -0.201000
N     -1.696600    1.379500   -0.715800
C     -0.397400    1.733300   -0.892900
C      0.683700    0.908400   -0.575100
C      2.099600    0.974700   -0.635300
C      2.601800   -0.227400   -0.147400
O      1.537000   -1.025300    0.208500
C      0.408200   -0.332500   -0.053200
C      3.969700   -0.648500   -0.003700
S      4.357500   -2.216500    0.635500
C      6.059400   -1.969900    0.496000
C      6.291400   -0.733400   -0.019900
C      7.440800    0.022000   -0.357200
C      7.054500    1.222500   -0.844500
C      5.528500    1.349600   -0.863500
C      5.129000    0.023200   -0.306900
C     -3.302100   -0.392800    0.057900
C     -4.600200    0.164200   -0.143200
C     -5.017200    1.342300   -0.622900
