
     RDKit          3D

 43 50  0  0  0  0  0  0  0  0999 V2000
    0.9708    1.6258   -0.0558 Si  0  0  0  0  0  4  0  0  0  0  0  0
    2.4384    0.3914    0.0011 C   0  0  0  0  0  0  0  0  0  0  0  0
    1.9669   -0.8724   -0.0187 C   0  0  0  0  0  0  0  0  0  0  0  0
    0.5008   -0.9864   -0.0769 C   0  0  0  0  0  0  0  0  0  0  0  0
   -0.2747    0.2084   -0.1064 C   0  0  0  0  0  0  0  0  0  0  0  0
   -1.7124    0.2155   -0.1633 C   0  0  0  0  0  0  0  0  0  0  0  0
   -2.6358    1.3127   -0.1989 C   0  0  0  0  0  0  0  0  0  0  0  0
   -2.3597    2.6660   -0.1867 C   0  0  0  0  0  0  0  0  0  0  0  0
   -3.5565    3.3703   -0.2334 N   0  0  0  0  0  0  0  0  0  0  0  0
   -4.6192    2.5000   -0.2763 C   0  0  0  0  0  0  0  0  0  0  0  0
   -4.0457    1.2660   -0.2547 C   0  0  0  0  0  0  0  0  0  0  0  0
   -4.6849    0.0082   -0.2812 C   0  0  0  0  0  0  0  0  0  0  0  0
   -6.0361   -0.3223   -0.3351 C   0  0  0  0  0  0  0  0  0  0  0  0
   -6.0559   -1.7031   -0.3371 C   0  0  0  0  0  0  0  0  0  0  0  0
   -4.7562   -2.1624   -0.2861 N   0  0  0  0  0  0  0  0  0  0  0  0
   -3.8684   -1.1024   -0.2500 C   0  0  0  0  0  0  0  0  0  0  0  0
   -2.4458   -1.0438   -0.1936 C   0  0  0  0  0  0  0  0  0  0  0  0
   -1.6833   -2.2602   -0.1645 C   0  0  0  0  0  0  0  0  0  0  0  0
   -2.1678   -3.5196   -0.1849 N   0  0  0  0  0  0  0  0  0  0  0  0
   -0.8632   -4.5407   -0.1343 S   0  0  0  0  0  0  0  0  0  0  0  0
    0.3830   -3.4511   -0.0839 N   0  0  0  0  0  0  0  0  0  0  0  0
   -0.1745   -2.2277   -0.1048 C   0  0  0  0  0  0  0  0  0  0  0  0
    3.8011    0.8112    0.0554 C   0  0  0  0  0  0  0  0  0  0  0  0
    4.2820    2.5090    0.0763 S   0  0  0  0  0  0  0  0  0  0  0  0
    5.9716    2.1782    0.1426 C   0  0  0  0  0  0  0  0  0  0  0  0
    6.1148    0.8420    0.1468 C   0  0  0  0  0  0  0  0  0  0  0  0
    7.1490   -0.1181    0.1866 C   0  0  0  0  0  0  0  0  0  0  0  0
    6.5301   -1.3801    0.1607 C   0  0  0  0  0  0  0  0  0  0  0  0
    5.1410   -1.2703    0.1060 N   0  0  0  0  0  0  0  0  0  0  0  0
    4.9575    0.0881    0.1003 C   0  0  0  0  0  0  0  0  0  0  0  0
    0.8528    2.4205    1.1946 H   0  0  0  0  0  0  0  0  0  0  0  0
    0.9519    2.4230   -1.3100 H   0  0  0  0  0  0  0  0  0  0  0  0
    2.5371   -1.7850    0.0031 H   0  0  0  0  0  0  0  0  0  0  0  0
   -1.4475    3.2388   -0.1500 H   0  0  0  0  0  0  0  0  0  0  0  0
   -3.6315    4.3795   -0.2354 H   0  0  0  0  0  0  0  0  0  0  0  0
   -5.6420    2.8472   -0.3165 H   0  0  0  0  0  0  0  0  0  0  0  0
   -6.8952    0.3330   -0.3684 H   0  0  0  0  0  0  0  0  0  0  0  0
   -6.8791   -2.4040   -0.3704 H   0  0  0  0  0  0  0  0  0  0  0  0
   -4.4674   -3.1334   -0.2756 H   0  0  0  0  0  0  0  0  0  0  0  0
    6.7112    2.9648    0.1727 H   0  0  0  0  0  0  0  0  0  0  0  0
    8.2158    0.0562    0.2289 H   0  0  0  0  0  0  0  0  0  0  0  0
    6.9743   -2.3672    0.1772 H   0  0  0  0  0  0  0  0  0  0  0  0
    4.4525   -2.0058    0.0779 H   0  0  0  0  0  0  0  0  0  0  0  0
  1  2  1  0
  2  3  2  0
  3  4  1  0
  4  5  2  0
  5  6  1  0
  6  7  1  0
  7  8  2  0
  8  9  1  0
  9 10  1  0
 10 11  2  0
 11 12  1  0
 12 13  1  0
 13 14  2  0
 14 15  1  0
 15 16  1  0
 16 17  1  0
 17 18  1  0
 18 19  2  0
 19 20  1  0
 20 21  1  0
 21 22  2  0
  2 23  1  0
 23 24  1  0
 24 25  1  0
 25 26  2  0
 26 27  1  0
 27 28  2  0
 28 29  1  0
 29 30  1  0
  5  1  1  0
 17  6  2  0
 22 18  1  0
 30 23  2  0
 22  4  1  0
 30 26  1  0
 11  7  1  0
 16 12  2  0
  1 31  1  0
  1 32  1  0
  3 33  1  0
  8 34  1  0
  9 35  1  0
 10 36  1  0
 13 37  1  0
 14 38  1  0
 15 39  1  0
 25 40  1  0
 27 41  1  0
 28 42  1  0
 29 43  1  0
M  END
