
     RDKit          3D

 47 53  0  0  0  0  0  0  0  0999 V2000
   -5.7779   -0.7973    2.3104 C   0  0  0  0  0  0  0  0  0  0  0  0
   -6.7259   -0.7329    1.1445 C   0  0  0  0  0  0  0  0  0  0  0  0
   -6.0208   -0.6035    0.0133 C   0  0  0  0  0  0  0  0  0  0  0  0
   -6.4724   -0.5091   -1.3520 C   0  0  0  0  0  0  0  0  0  0  0  0
   -5.5385   -0.3891   -2.3166 C   0  0  0  0  0  0  0  0  0  0  0  0
   -4.1027   -0.3501   -2.0125 C   0  0  0  0  0  0  0  0  0  0  0  0
   -3.6139   -0.4320   -0.7485 C   0  0  0  0  0  0  0  0  0  0  0  0
   -2.1558   -0.3721   -0.5373 C   0  0  0  0  0  0  0  0  0  0  0  0
   -1.4545    0.7950   -0.8142 C   0  0  0  0  0  0  0  0  0  0  0  0
   -0.0823    0.7492   -0.5666 C   0  0  0  0  0  0  0  0  0  0  0  0
    0.8676    1.7190   -0.7309 N   0  0  0  0  0  0  0  0  0  0  0  0
    2.1167    1.2667   -0.3691 C   0  0  0  0  0  0  0  0  0  0  0  0
    1.9742   -0.0597    0.0525 C   0  0  0  0  0  0  0  0  0  0  0  0
    0.5634   -0.3826   -0.0730 C   0  0  0  0  0  0  0  0  0  0  0  0
   -0.2361   -1.5079    0.1793 C   0  0  0  0  0  0  0  0  0  0  0  0
   -1.5740   -1.4894   -0.0499 N   0  0  0  0  0  0  0  0  0  0  0  0
    3.1567   -0.7548    0.4835 C   0  0  0  0  0  0  0  0  0  0  0  0
    3.0819   -2.0992    0.9191 C   0  0  0  0  0  0  0  0  0  0  0  0
    4.2113   -2.7973    1.3428 C   0  0  0  0  0  0  0  0  0  0  0  0
    5.4437   -2.1699    1.3417 C   0  0  0  0  0  0  0  0  0  0  0  0
    5.5454   -0.8443    0.9159 C   0  0  0  0  0  0  0  0  0  0  0  0
    4.4240   -0.0954    0.4762 C   0  0  0  0  0  0  0  0  0  0  0  0
    4.5232    1.2625    0.0379 C   0  0  0  0  0  0  0  0  0  0  0  0
    5.7232    2.0112   -0.0109 C   0  0  0  0  0  0  0  0  0  0  0  0
    5.7169    3.3282   -0.4539 C   0  0  0  0  0  0  0  0  0  0  0  0
    4.6125    3.9783   -0.8582 N   0  0  0  0  0  0  0  0  0  0  0  0
    3.4632    3.2735   -0.8154 C   0  0  0  0  0  0  0  0  0  0  0  0
    3.3623    1.9395   -0.3850 C   0  0  0  0  0  0  0  0  0  0  0  0
   -4.5938   -0.5700    0.3219 C   0  0  0  0  0  0  0  0  0  0  0  0
   -4.4333   -0.6780    1.6496 C   0  0  0  0  0  0  0  0  0  0  0  0
   -5.9503    0.0315    3.0034 H   0  0  0  0  0  0  0  0  0  0  0  0
   -5.8722   -1.7489    2.8417 H   0  0  0  0  0  0  0  0  0  0  0  0
   -7.8000   -0.7896    1.2247 H   0  0  0  0  0  0  0  0  0  0  0  0
   -7.5313   -0.5424   -1.5769 H   0  0  0  0  0  0  0  0  0  0  0  0
   -5.8285   -0.3225   -3.3606 H   0  0  0  0  0  0  0  0  0  0  0  0
   -3.4373   -0.2640   -2.8675 H   0  0  0  0  0  0  0  0  0  0  0  0
   -1.9466    1.6842   -1.1886 H   0  0  0  0  0  0  0  0  0  0  0  0
    0.6687    2.6470   -1.0746 H   0  0  0  0  0  0  0  0  0  0  0  0
    0.1358   -2.4468    0.5653 H   0  0  0  0  0  0  0  0  0  0  0  0
    2.1445   -2.6375    0.9386 H   0  0  0  0  0  0  0  0  0  0  0  0
    4.1226   -3.8294    1.6718 H   0  0  0  0  0  0  0  0  0  0  0  0
    6.3303   -2.7058    1.6703 H   0  0  0  0  0  0  0  0  0  0  0  0
    6.5390   -0.4057    0.9368 H   0  0  0  0  0  0  0  0  0  0  0  0
    6.6753    1.5909    0.2906 H   0  0  0  0  0  0  0  0  0  0  0  0
    6.6361    3.9063   -0.4928 H   0  0  0  0  0  0  0  0  0  0  0  0
    2.5987    3.8375   -1.1501 H   0  0  0  0  0  0  0  0  0  0  0  0
   -3.4894   -0.6933    2.1731 H   0  0  0  0  0  0  0  0  0  0  0  0
  1  2  1  0
  2  3  2  0
  3  4  1  0
  4  5  2  0
  5  6  1  0
  6  7  2  0
  7  8  1  0
  8  9  2  0
  9 10  1  0
 10 11  1  0
 11 12  1  0
 12 13  2  0
 13 14  1  0
 14 15  1  0
 15 16  2  0
 13 17  1  0
 17 18  2  0
 18 19  1  0
 19 20  2  0
 20 21  1  0
 21 22  2  0
 22 23  1  0
 23 24  2  0
 24 25  1  0
 25 26  2  0
 26 27  1  0
 27 28  2  0
  7 29  1  0
 29 30  2  0
 30  1  1  0
 29  3  1  0
 16  8  1  0
 22 17  1  0
 28 23  1  0
 14 10  2  0
 28 12  1  0
  1 31  1  0
  1 32  1  0
  2 33  1  0
  4 34  1  0
  5 35  1  0
  6 36  1  0
  9 37  1  0
 11 38  1  0
 15 39  1  0
 18 40  1  0
 19 41  1  0
 20 42  1  0
 21 43  1  0
 24 44  1  0
 25 45  1  0
 27 46  1  0
 30 47  1  0
M  END
