
     RDKit          3D

 46 52  0  0  0  0  0  0  0  0999 V2000
   -5.4773    2.3424    1.0528 C   0  0  0  0  0  0  0  0  0  0  0  0
   -6.5695    1.4882    0.4738 C   0  0  0  0  0  0  0  0  0  0  0  0
   -6.0424    0.3344    0.0447 C   0  0  0  0  0  0  0  0  0  0  0  0
   -6.6889   -0.8053   -0.5535 C   0  0  0  0  0  0  0  0  0  0  0  0
   -5.9213   -1.8657   -0.8722 C   0  0  0  0  0  0  0  0  0  0  0  0
   -4.4719   -1.8776   -0.6413 C   0  0  0  0  0  0  0  0  0  0  0  0
   -3.7954   -0.8348   -0.0954 C   0  0  0  0  0  0  0  0  0  0  0  0
   -2.3831   -0.9659    0.0413 C   0  0  0  0  0  0  0  0  0  0  0  0
   -1.5540   -1.9718    0.5376 C   0  0  0  0  0  0  0  0  0  0  0  0
   -0.2568   -1.5019    0.3839 C   0  0  0  0  0  0  0  0  0  0  0  0
    1.5290   -1.9509    0.6787 Si  0  0  0  0  0  4  0  0  0  0  0  0
    2.1118   -0.2806   -0.0689 C   0  0  0  0  0  0  0  0  0  0  0  0
    0.9566    0.4435   -0.4602 C   0  0  0  0  0  0  0  0  0  0  0  0
    0.9246    1.6579   -1.0236 N   0  0  0  0  0  0  0  0  0  0  0  0
    2.1450    2.2050   -1.2196 C   0  0  0  0  0  0  0  0  0  0  0  0
    3.3656    1.5998   -0.8810 C   0  0  0  0  0  0  0  0  0  0  0  0
    4.6277    2.3315   -1.1605 C   0  0  0  0  0  0  0  0  0  0  0  0
    5.8278    1.8075   -0.8600 C   0  0  0  0  0  0  0  0  0  0  0  0
    5.8880    0.5065   -0.2532 C   0  0  0  0  0  0  0  0  0  0  0  0
    6.9802   -0.1756    0.1157 C   0  0  0  0  0  0  0  0  0  0  0  0
    6.5661   -1.4874    0.7049 C   0  0  0  0  0  0  0  0  0  0  0  0
    5.0664   -1.4281    0.6056 C   0  0  0  0  0  0  0  0  0  0  0  0
    4.6818   -0.2666    0.0480 C   0  0  0  0  0  0  0  0  0  0  0  0
    3.3558    0.3035   -0.2801 C   0  0  0  0  0  0  0  0  0  0  0  0
   -0.2807   -0.2562   -0.1945 C   0  0  0  0  0  0  0  0  0  0  0  0
   -1.5819    0.0718   -0.4149 N   0  0  0  0  0  0  0  0  0  0  0  0
   -4.6002    0.3274    0.2823 C   0  0  0  0  0  0  0  0  0  0  0  0
   -4.2568    1.4815    0.8769 C   0  0  0  0  0  0  0  0  0  0  0  0
   -5.3782    3.2825    0.5023 H   0  0  0  0  0  0  0  0  0  0  0  0
   -5.6611    2.5513    2.1108 H   0  0  0  0  0  0  0  0  0  0  0  0
   -7.6103    1.7688    0.4331 H   0  0  0  0  0  0  0  0  0  0  0  0
   -7.7581   -0.7965   -0.7257 H   0  0  0  0  0  0  0  0  0  0  0  0
   -6.3599   -2.7512   -1.3215 H   0  0  0  0  0  0  0  0  0  0  0  0
   -3.9531   -2.7780   -0.9604 H   0  0  0  0  0  0  0  0  0  0  0  0
   -1.8876   -2.9109    0.9601 H   0  0  0  0  0  0  0  0  0  0  0  0
    1.8974   -2.0561    2.1148 H   0  0  0  0  0  0  0  0  0  0  0  0
    2.0045   -3.1006   -0.1348 H   0  0  0  0  0  0  0  0  0  0  0  0
    2.1196    3.1906   -1.6782 H   0  0  0  0  0  0  0  0  0  0  0  0
    4.5602    3.3127   -1.6194 H   0  0  0  0  0  0  0  0  0  0  0  0
    6.7468    2.3450   -1.0658 H   0  0  0  0  0  0  0  0  0  0  0  0
    8.0030    0.1523    0.0124 H   0  0  0  0  0  0  0  0  0  0  0  0
    6.9653   -2.3250    0.1255 H   0  0  0  0  0  0  0  0  0  0  0  0
    6.8878   -1.5722    1.7470 H   0  0  0  0  0  0  0  0  0  0  0  0
    4.4485   -2.2372    0.9518 H   0  0  0  0  0  0  0  0  0  0  0  0
   -1.9029    0.9283   -0.8479 H   0  0  0  0  0  0  0  0  0  0  0  0
   -3.2683    1.7636    1.2048 H   0  0  0  0  0  0  0  0  0  0  0  0
  1  2  1  0
  2  3  2  0
  3  4  1  0
  4  5  2  0
  5  6  1  0
  6  7  2  0
  7  8  1  0
  8  9  2  0
  9 10  1  0
 10 11  1  0
 11 12  1  0
 12 13  2  0
 13 14  1  0
 14 15  2  0
 15 16  1  0
 16 17  1  0
 17 18  2  0
 18 19  1  0
 19 20  2  0
 20 21  1  0
 21 22  1  0
 22 23  2  0
 23 24  1  0
 13 25  1  0
 25 26  1  0
  7 27  1  0
 27 28  2  0
 28  1  1  0
 27  3  1  0
 26  8  1  0
 25 10  2  0
 24 12  1  0
 24 16  2  0
 23 19  1  0
  1 29  1  0
  1 30  1  0
  2 31  1  0
  4 32  1  0
  5 33  1  0
  6 34  1  0
  9 35  1  0
 11 36  1  0
 11 37  1  0
 15 38  1  0
 17 39  1  0
 18 40  1  0
 20 41  1  0
 21 42  1  0
 21 43  1  0
 22 44  1  0
 26 45  1  0
 28 46  1  0
M  END
