
     RDKit          3D

 46 52  0  0  0  0  0  0  0  0999 V2000
    5.9347   -0.6993    1.6555 C   0  0  0  0  0  0  0  0  0  0  0  0
    6.5959   -0.3201    0.3622 C   0  0  0  0  0  0  0  0  0  0  0  0
    5.6563    0.0432   -0.5200 C   0  0  0  0  0  0  0  0  0  0  0  0
    5.8014    0.4534   -1.8928 C   0  0  0  0  0  0  0  0  0  0  0  0
    4.6807    0.7380   -2.5831 C   0  0  0  0  0  0  0  0  0  0  0  0
    3.3490    0.6562   -1.9735 C   0  0  0  0  0  0  0  0  0  0  0  0
    3.1369    0.2934   -0.6815 C   0  0  0  0  0  0  0  0  0  0  0  0
    1.7801    0.2972   -0.2160 C   0  0  0  0  0  0  0  0  0  0  0  0
    1.2710    0.6059    1.0501 C   0  0  0  0  0  0  0  0  0  0  0  0
   -0.1265    0.4667    0.9910 C   0  0  0  0  0  0  0  0  0  0  0  0
   -0.4249    0.0851   -0.2872 C   0  0  0  0  0  0  0  0  0  0  0  0
    0.6983   -0.0115   -1.0345 O   0  0  0  0  0  0  0  0  0  0  0  0
   -1.7387   -0.1478   -0.8643 C   0  0  0  0  0  0  0  0  0  0  0  0
   -1.8820   -0.5417   -2.1944 C   0  0  0  0  0  0  0  0  0  0  0  0
   -3.1511   -0.6701   -2.7448 C   0  0  0  0  0  0  0  0  0  0  0  0
   -4.2909   -0.3419   -2.0010 C   0  0  0  0  0  0  0  0  0  0  0  0
   -5.5475   -0.4110   -2.6152 C   0  0  0  0  0  0  0  0  0  0  0  0
   -6.6662   -0.0211   -1.9051 C   0  0  0  0  0  0  0  0  0  0  0  0
   -6.6149    0.4480   -0.6492 N   0  0  0  0  0  0  0  0  0  0  0  0
   -5.3866    0.4990   -0.0715 C   0  0  0  0  0  0  0  0  0  0  0  0
   -4.1732    0.0811   -0.6514 C   0  0  0  0  0  0  0  0  0  0  0  0
   -2.8793    0.0931   -0.0342 C   0  0  0  0  0  0  0  0  0  0  0  0
   -2.5891    0.3503    1.4368 C   0  0  0  0  0  0  0  0  0  0  0  0
   -3.4655    0.2545    2.4620 C   0  0  0  0  0  0  0  0  0  0  0  0
   -2.6821    0.6625    4.1182 Si  0  0  0  0  0  4  0  0  0  0  0  0
   -1.0513    0.8170    3.2460 C   0  0  0  0  0  0  0  0  0  0  0  0
   -1.1862    0.5999    1.9242 C   0  0  0  0  0  0  0  0  0  0  0  0
    4.3310   -0.0463    0.0939 C   0  0  0  0  0  0  0  0  0  0  0  0
    4.4762   -0.4896    1.3535 C   0  0  0  0  0  0  0  0  0  0  0  0
    6.2644   -0.0510    2.4726 H   0  0  0  0  0  0  0  0  0  0  0  0
    6.1365   -1.7443    1.9086 H   0  0  0  0  0  0  0  0  0  0  0  0
    7.6591   -0.3576    0.1833 H   0  0  0  0  0  0  0  0  0  0  0  0
    6.7851    0.5152   -2.3420 H   0  0  0  0  0  0  0  0  0  0  0  0
    4.7339    1.0465   -3.6227 H   0  0  0  0  0  0  0  0  0  0  0  0
    2.5195    0.9285   -2.6225 H   0  0  0  0  0  0  0  0  0  0  0  0
    1.8612    0.9066    1.9034 H   0  0  0  0  0  0  0  0  0  0  0  0
   -1.0071   -0.7444   -2.8079 H   0  0  0  0  0  0  0  0  0  0  0  0
   -3.2370   -0.9873   -3.7825 H   0  0  0  0  0  0  0  0  0  0  0  0
   -5.6608   -0.7496   -3.6402 H   0  0  0  0  0  0  0  0  0  0  0  0
   -7.6562   -0.0607   -2.3496 H   0  0  0  0  0  0  0  0  0  0  0  0
   -5.4196    0.9607    0.9077 H   0  0  0  0  0  0  0  0  0  0  0  0
   -4.5011   -0.0352    2.4541 H   0  0  0  0  0  0  0  0  0  0  0  0
   -2.7224   -0.4859    5.0541 H   0  0  0  0  0  0  0  0  0  0  0  0
   -3.1661    1.9539    4.6608 H   0  0  0  0  0  0  0  0  0  0  0  0
   -0.1326    0.9709    3.7891 H   0  0  0  0  0  0  0  0  0  0  0  0
    3.6875   -0.6913    2.0603 H   0  0  0  0  0  0  0  0  0  0  0  0
  1  2  1  0
  2  3  2  0
  3  4  1  0
  4  5  2  0
  5  6  1  0
  6  7  2  0
  7  8  1  0
  8  9  2  0
  9 10  1  0
 10 11  2  0
 11 12  1  0
 11 13  1  0
 13 14  2  0
 14 15  1  0
 15 16  2  0
 16 17  1  0
 17 18  2  0
 18 19  1  0
 19 20  2  0
 20 21  1  0
 21 22  2  0
 22 23  1  0
 23 24  2  0
 24 25  1  0
 25 26  1  0
 26 27  2  0
  7 28  1  0
 28 29  2  0
 29  1  1  0
 28  3  1  0
 12  8  1  0
 22 13  1  0
 27 23  1  0
 27 10  1  0
 21 16  1  0
  1 30  1  0
  1 31  1  0
  2 32  1  0
  4 33  1  0
  5 34  1  0
  6 35  1  0
  9 36  1  0
 14 37  1  0
 15 38  1  0
 17 39  1  0
 18 40  1  0
 20 41  1  0
 24 42  1  0
 25 43  1  0
 25 44  1  0
 26 45  1  0
 29 46  1  0
M  END
