
     RDKit          3D

 41 46  0  0  0  0  0  0  0  0999 V2000
    5.5313   -1.6763    1.5154 C   0  0  0  0  0  0  0  0  0  0  0  0
    6.4874   -0.8576    0.6934 C   0  0  0  0  0  0  0  0  0  0  0  0
    5.7900   -0.0636   -0.1290 C   0  0  0  0  0  0  0  0  0  0  0  0
    6.2540    0.8856   -1.1083 C   0  0  0  0  0  0  0  0  0  0  0  0
    5.3274    1.5583   -1.8188 C   0  0  0  0  0  0  0  0  0  0  0  0
    3.8876    1.3547   -1.6154 C   0  0  0  0  0  0  0  0  0  0  0  0
    3.3829    0.4719   -0.7152 C   0  0  0  0  0  0  0  0  0  0  0  0
    1.9623    0.3750   -0.5725 C   0  0  0  0  0  0  0  0  0  0  0  0
    1.1903    0.6519    0.5403 C   0  0  0  0  0  0  0  0  0  0  0  0
   -0.2121    0.4250    0.3444 C   0  0  0  0  0  0  0  0  0  0  0  0
   -1.3054    0.5959    1.2271 C   0  0  0  0  0  0  0  0  0  0  0  0
   -2.6204    0.3065    0.8206 C   0  0  0  0  0  0  0  0  0  0  0  0
   -3.7072    0.4763    1.6967 C   0  0  0  0  0  0  0  0  0  0  0  0
   -5.0143    0.1981    1.3220 C   0  0  0  0  0  0  0  0  0  0  0  0
   -6.0102    0.3816    2.2077 N   0  0  0  0  0  0  0  0  0  0  0  0
   -7.2713    0.1016    1.8119 C   0  0  0  0  0  0  0  0  0  0  0  0
   -7.5986   -0.3617    0.5523 C   0  0  0  0  0  0  0  0  0  0  0  0
   -6.5676   -0.5500   -0.3596 C   0  0  0  0  0  0  0  0  0  0  0  0
   -5.2461   -0.2703    0.0145 C   0  0  0  0  0  0  0  0  0  0  0  0
   -4.1712   -0.4458   -0.8747 C   0  0  0  0  0  0  0  0  0  0  0  0
   -2.8554   -0.1608   -0.4828 C   0  0  0  0  0  0  0  0  0  0  0  0
   -1.7804   -0.3358   -1.3699 C   0  0  0  0  0  0  0  0  0  0  0  0
   -0.4711   -0.0396   -0.9424 C   0  0  0  0  0  0  0  0  0  0  0  0
    0.9757   -0.1851   -1.8610 S   0  0  0  0  0  0  0  0  0  0  0  0
    4.3593   -0.2764    0.0728 C   0  0  0  0  0  0  0  0  0  0  0  0
    4.1892   -1.2117    1.0205 C   0  0  0  0  0  0  0  0  0  0  0  0
    5.6507   -1.4673    2.5826 H   0  0  0  0  0  0  0  0  0  0  0  0
    5.6696   -2.7456    1.3303 H   0  0  0  0  0  0  0  0  0  0  0  0
    7.5622   -0.9180    0.7634 H   0  0  0  0  0  0  0  0  0  0  0  0
    7.3159    1.0371   -1.2583 H   0  0  0  0  0  0  0  0  0  0  0  0
    5.6257    2.2827   -2.5704 H   0  0  0  0  0  0  0  0  0  0  0  0
    3.2348    1.9707   -2.2292 H   0  0  0  0  0  0  0  0  0  0  0  0
    1.6164    1.0120    1.4695 H   0  0  0  0  0  0  0  0  0  0  0  0
   -1.1138    0.9583    2.2349 H   0  0  0  0  0  0  0  0  0  0  0  0
   -3.5377    0.8379    2.7091 H   0  0  0  0  0  0  0  0  0  0  0  0
   -8.0375    0.2667    2.5642 H   0  0  0  0  0  0  0  0  0  0  0  0
   -8.6286   -0.5707    0.2873 H   0  0  0  0  0  0  0  0  0  0  0  0
   -6.7977   -0.9137   -1.3576 H   0  0  0  0  0  0  0  0  0  0  0  0
   -4.3652   -0.8087   -1.8824 H   0  0  0  0  0  0  0  0  0  0  0  0
   -1.9462   -0.6976   -2.3815 H   0  0  0  0  0  0  0  0  0  0  0  0
    3.2451   -1.5915    1.3797 H   0  0  0  0  0  0  0  0  0  0  0  0
  1  2  1  0
  2  3  2  0
  3  4  1  0
  4  5  2  0
  5  6  1  0
  6  7  2  0
  7  8  1  0
  8  9  2  0
  9 10  1  0
 10 11  2  0
 11 12  1  0
 12 13  2  0
 13 14  1  0
 14 15  2  0
 15 16  1  0
 16 17  2  0
 17 18  1  0
 18 19  2  0
 19 20  1  0
 20 21  2  0
 21 22  1  0
 22 23  2  0
 23 24  1  0
  7 25  1  0
 25 26  2  0
 26  1  1  0
 25  3  1  0
 24  8  1  0
 23 10  1  0
 21 12  1  0
 19 14  1  0
  1 27  1  0
  1 28  1  0
  2 29  1  0
  4 30  1  0
  5 31  1  0
  6 32  1  0
  9 33  1  0
 11 34  1  0
 13 35  1  0
 16 36  1  0
 17 37  1  0
 18 38  1  0
 20 39  1  0
 22 40  1  0
 26 41  1  0
M  END
