
     RDKit          3D

 45 51  0  0  0  0  0  0  0  0999 V2000
    6.6073   -1.5097    1.0277 C   0  0  0  0  0  0  0  0  0  0  0  0
    7.2226   -0.5488    0.0523 C   0  0  0  0  0  0  0  0  0  0  0  0
    6.2569    0.2051   -0.4882 C   0  0  0  0  0  0  0  0  0  0  0  0
    6.3550    1.2342   -1.4907 C   0  0  0  0  0  0  0  0  0  0  0  0
    5.2148    1.8265   -1.8936 C   0  0  0  0  0  0  0  0  0  0  0  0
    3.9089    1.4642   -1.3323 C   0  0  0  0  0  0  0  0  0  0  0  0
    3.7414    0.5164   -0.3732 C   0  0  0  0  0  0  0  0  0  0  0  0
    2.4066    0.3000    0.1058 C   0  0  0  0  0  0  0  0  0  0  0  0
    1.9608   -0.0617    1.3762 C   0  0  0  0  0  0  0  0  0  0  0  0
    0.5469   -0.1452    1.3490 C   0  0  0  0  0  0  0  0  0  0  0  0
   -0.4696   -0.4500    2.2589 C   0  0  0  0  0  0  0  0  0  0  0  0
   -1.7886   -0.4139    1.8160 C   0  0  0  0  0  0  0  0  0  0  0  0
   -2.8765   -0.6851    2.5776 O   0  0  0  0  0  0  0  0  0  0  0  0
   -3.9669   -0.5401    1.7799 C   0  0  0  0  0  0  0  0  0  0  0  0
   -5.2759   -0.7360    2.2090 C   0  0  0  0  0  0  0  0  0  0  0  0
   -6.2846   -0.5463    1.2633 C   0  0  0  0  0  0  0  0  0  0  0  0
   -5.9940   -0.1760   -0.0572 C   0  0  0  0  0  0  0  0  0  0  0  0
   -7.0286    0.0077   -0.9872 C   0  0  0  0  0  0  0  0  0  0  0  0
   -6.7525    0.3760   -2.3048 C   0  0  0  0  0  0  0  0  0  0  0  0
   -5.4369    0.5666   -2.7141 C   0  0  0  0  0  0  0  0  0  0  0  0
   -4.3893    0.3903   -1.8084 C   0  0  0  0  0  0  0  0  0  0  0  0
   -4.6459    0.0183   -0.4714 C   0  0  0  0  0  0  0  0  0  0  0  0
   -3.5996   -0.1719    0.4863 C   0  0  0  0  0  0  0  0  0  0  0  0
   -2.1643   -0.0893    0.5142 C   0  0  0  0  0  0  0  0  0  0  0  0
   -1.1338    0.2182   -0.3902 C   0  0  0  0  0  0  0  0  0  0  0  0
    0.1839    0.1809    0.0552 C   0  0  0  0  0  0  0  0  0  0  0  0
    1.2832    0.4551   -0.6889 O   0  0  0  0  0  0  0  0  0  0  0  0
    4.9572   -0.1666    0.0726 C   0  0  0  0  0  0  0  0  0  0  0  0
    5.1439   -1.1713    0.9445 C   0  0  0  0  0  0  0  0  0  0  0  0
    6.9919   -1.3467    2.0387 H   0  0  0  0  0  0  0  0  0  0  0  0
    6.7880   -2.5456    0.7261 H   0  0  0  0  0  0  0  0  0  0  0  0
    8.2753   -0.4994   -0.1783 H   0  0  0  0  0  0  0  0  0  0  0  0
    7.3197    1.5024   -1.9039 H   0  0  0  0  0  0  0  0  0  0  0  0
    5.2324    2.6039   -2.6513 H   0  0  0  0  0  0  0  0  0  0  0  0
    3.0615    2.0242   -1.7220 H   0  0  0  0  0  0  0  0  0  0  0  0
    2.5950   -0.2314    2.2345 H   0  0  0  0  0  0  0  0  0  0  0  0
   -0.2458   -0.7101    3.2883 H   0  0  0  0  0  0  0  0  0  0  0  0
   -5.4954   -1.0223    3.2307 H   0  0  0  0  0  0  0  0  0  0  0  0
   -7.3174   -0.6937    1.5751 H   0  0  0  0  0  0  0  0  0  0  0  0
   -8.0663   -0.1353   -0.6926 H   0  0  0  0  0  0  0  0  0  0  0  0
   -7.5670    0.5136   -3.0115 H   0  0  0  0  0  0  0  0  0  0  0  0
   -5.2233    0.8532   -3.7409 H   0  0  0  0  0  0  0  0  0  0  0  0
   -3.3779    0.5473   -2.1639 H   0  0  0  0  0  0  0  0  0  0  0  0
   -1.3355    0.4828   -1.4207 H   0  0  0  0  0  0  0  0  0  0  0  0
    4.3823   -1.6905    1.5035 H   0  0  0  0  0  0  0  0  0  0  0  0
  1  2  1  0
  2  3  2  0
  3  4  1  0
  4  5  2  0
  5  6  1  0
  6  7  2  0
  7  8  1  0
  8  9  2  0
  9 10  1  0
 10 11  2  0
 11 12  1  0
 12 13  1  0
 13 14  1  0
 14 15  2  0
 15 16  1  0
 16 17  2  0
 17 18  1  0
 18 19  2  0
 19 20  1  0
 20 21  2  0
 21 22  1  0
 22 23  2  0
 23 24  1  0
 24 25  1  0
 25 26  2  0
 26 27  1  0
  7 28  1  0
 28 29  2  0
 29  1  1  0
 28  3  1  0
 27  8  1  0
 26 10  1  0
 24 12  2  0
 23 14  1  0
 22 17  1  0
  1 30  1  0
  1 31  1  0
  2 32  1  0
  4 33  1  0
  5 34  1  0
  6 35  1  0
  9 36  1  0
 11 37  1  0
 15 38  1  0
 16 39  1  0
 18 40  1  0
 19 41  1  0
 20 42  1  0
 21 43  1  0
 25 44  1  0
 29 45  1  0
M  END
