
     RDKit          3D

 38 43  0  0  0  0  0  0  0  0999 V2000
   -5.0711    1.8351    0.7988 C   0  0  0  0  0  0  0  0  0  0  0  0
   -5.8880    0.6731    0.3068 C   0  0  0  0  0  0  0  0  0  0  0  0
   -5.0648   -0.2815   -0.1451 C   0  0  0  0  0  0  0  0  0  0  0  0
   -5.3696   -1.5766   -0.6973 C   0  0  0  0  0  0  0  0  0  0  0  0
   -4.3375   -2.3586   -1.0703 C   0  0  0  0  0  0  0  0  0  0  0  0
   -2.9411   -1.9251   -0.9372 C   0  0  0  0  0  0  0  0  0  0  0  0
   -2.5833   -0.7214   -0.4196 C   0  0  0  0  0  0  0  0  0  0  0  0
   -1.1933   -0.3827   -0.3679 C   0  0  0  0  0  0  0  0  0  0  0  0
   -0.5430    0.6634   -0.9921 C   0  0  0  0  0  0  0  0  0  0  0  0
    0.8633    0.7279   -0.7119 C   0  0  0  0  0  0  0  0  0  0  0  0
    1.8385    1.6487   -1.1767 C   0  0  0  0  0  0  0  0  0  0  0  0
    3.1712    1.5374   -0.7815 C   0  0  0  0  0  0  0  0  0  0  0  0
    3.5343    0.5016    0.0827 C   0  0  0  0  0  0  0  0  0  0  0  0
    4.8384    0.2854    0.5499 C   0  0  0  0  0  0  0  0  0  0  0  0
    5.9417    1.0315    0.2461 O   0  0  0  0  0  0  0  0  0  0  0  0
    6.9909    0.4783    0.9076 C   0  0  0  0  0  0  0  0  0  0  0  0
    6.5828   -0.6154    1.6355 C   0  0  0  0  0  0  0  0  0  0  0  0
    5.1865   -0.7498    1.4104 C   0  0  0  0  0  0  0  0  0  0  0  0
    4.1829   -1.6236    1.8335 C   0  0  0  0  0  0  0  0  0  0  0  0
    2.9039   -1.4583    1.4102 N   0  0  0  0  0  0  0  0  0  0  0  0
    2.6065   -0.4328    0.5695 C   0  0  0  0  0  0  0  0  0  0  0  0
    1.2593   -0.2994    0.1549 C   0  0  0  0  0  0  0  0  0  0  0  0
   -0.0932   -1.2855    0.5872 S   0  0  0  0  0  0  0  0  0  0  0  0
   -3.6775    0.1523   -0.0021 C   0  0  0  0  0  0  0  0  0  0  0  0
   -3.6608    1.3768    0.5480 C   0  0  0  0  0  0  0  0  0  0  0  0
   -5.2426    2.0130    1.8645 H   0  0  0  0  0  0  0  0  0  0  0  0
   -5.2962    2.7430    0.2316 H   0  0  0  0  0  0  0  0  0  0  0  0
   -6.9656    0.6285    0.3297 H   0  0  0  0  0  0  0  0  0  0  0  0
   -6.3994   -1.8974   -0.7959 H   0  0  0  0  0  0  0  0  0  0  0  0
   -4.5138   -3.3451   -1.4881 H   0  0  0  0  0  0  0  0  0  0  0  0
   -2.1945   -2.6310   -1.2933 H   0  0  0  0  0  0  0  0  0  0  0  0
   -1.0581    1.3640   -1.6392 H   0  0  0  0  0  0  0  0  0  0  0  0
    1.5445    2.4512   -1.8500 H   0  0  0  0  0  0  0  0  0  0  0  0
    3.9114    2.2466   -1.1426 H   0  0  0  0  0  0  0  0  0  0  0  0
    7.9440    0.9680    0.7618 H   0  0  0  0  0  0  0  0  0  0  0  0
    7.2134   -1.2395    2.2526 H   0  0  0  0  0  0  0  0  0  0  0  0
    4.3630   -2.4571    2.5031 H   0  0  0  0  0  0  0  0  0  0  0  0
   -2.7826    1.9549    0.7907 H   0  0  0  0  0  0  0  0  0  0  0  0
  1  2  1  0
  2  3  2  0
  3  4  1  0
  4  5  2  0
  5  6  1  0
  6  7  2  0
  7  8  1  0
  8  9  2  0
  9 10  1  0
 10 11  2  0
 11 12  1  0
 12 13  2  0
 13 14  1  0
 14 15  1  0
 15 16  1  0
 16 17  2  0
 17 18  1  0
 18 19  1  0
 19 20  2  0
 20 21  1  0
 21 22  2  0
 22 23  1  0
  7 24  1  0
 24 25  2  0
 25  1  1  0
 24  3  1  0
 23  8  1  0
 22 10  1  0
 21 13  1  0
 18 14  2  0
  1 26  1  0
  1 27  1  0
  2 28  1  0
  4 29  1  0
  5 30  1  0
  6 31  1  0
  9 32  1  0
 11 33  1  0
 12 34  1  0
 16 35  1  0
 17 36  1  0
 19 37  1  0
 25 38  1  0
M  END
