
     RDKit          3D

 45 51  0  0  0  0  0  0  0  0999 V2000
    5.6082   -1.3203    1.9747 C   0  0  0  0  0  0  0  0  0  0  0  0
    6.3474   -0.2531    1.2154 C   0  0  0  0  0  0  0  0  0  0  0  0
    5.5269    0.2840    0.3034 C   0  0  0  0  0  0  0  0  0  0  0  0
    5.7697    1.3321   -0.6549 C   0  0  0  0  0  0  0  0  0  0  0  0
    4.7546    1.6879   -1.4670 C   0  0  0  0  0  0  0  0  0  0  0  0
    3.4373    1.0425   -1.3998 C   0  0  0  0  0  0  0  0  0  0  0  0
    3.1410    0.0544   -0.5170 C   0  0  0  0  0  0  0  0  0  0  0  0
    1.8391   -0.5131   -0.5488 C   0  0  0  0  0  0  0  0  0  0  0  0
    1.3613   -1.7890   -0.7636 C   0  0  0  0  0  0  0  0  0  0  0  0
   -0.0467   -1.7445   -0.6406 C   0  0  0  0  0  0  0  0  0  0  0  0
   -0.9289   -2.7596   -0.7789 N   0  0  0  0  0  0  0  0  0  0  0  0
   -2.2270   -2.4185   -0.6005 C   0  0  0  0  0  0  0  0  0  0  0  0
   -2.7403   -1.1500   -0.2920 C   0  0  0  0  0  0  0  0  0  0  0  0
   -4.1489   -0.8680   -0.1159 C   0  0  0  0  0  0  0  0  0  0  0  0
   -5.6422   -2.0459   -0.2396 Si  0  0  0  0  0  4  0  0  0  0  0  0
   -6.7896   -0.6091    0.1582 C   0  0  0  0  0  0  0  0  0  0  0  0
   -6.1390    0.5527    0.3486 C   0  0  0  0  0  0  0  0  0  0  0  0
   -4.6947    0.4174    0.2001 C   0  0  0  0  0  0  0  0  0  0  0  0
   -3.7197    1.3957    0.3252 C   0  0  0  0  0  0  0  0  0  0  0  0
   -3.9014    2.7224    0.6202 C   0  0  0  0  0  0  0  0  0  0  0  0
   -2.6539    3.3016    0.6392 N   0  0  0  0  0  0  0  0  0  0  0  0
   -1.6821    2.3593    0.3585 C   0  0  0  0  0  0  0  0  0  0  0  0
   -2.3136    1.1540    0.1574 C   0  0  0  0  0  0  0  0  0  0  0  0
   -1.7634   -0.1078   -0.1540 C   0  0  0  0  0  0  0  0  0  0  0  0
   -0.4154   -0.4355   -0.3357 C   0  0  0  0  0  0  0  0  0  0  0  0
    0.7528    0.2865   -0.2754 N   0  0  0  0  0  0  0  0  0  0  0  0
    4.2184   -0.3599    0.3758 C   0  0  0  0  0  0  0  0  0  0  0  0
    4.2445   -1.2904    1.3426 C   0  0  0  0  0  0  0  0  0  0  0  0
    6.0820   -2.2974    1.8421 H   0  0  0  0  0  0  0  0  0  0  0  0
    5.5530   -1.0777    3.0400 H   0  0  0  0  0  0  0  0  0  0  0  0
    7.3754    0.0224    1.3910 H   0  0  0  0  0  0  0  0  0  0  0  0
    6.7431    1.8042   -0.7087 H   0  0  0  0  0  0  0  0  0  0  0  0
    4.8899    2.4675   -2.2105 H   0  0  0  0  0  0  0  0  0  0  0  0
    2.7062    1.3899   -2.1257 H   0  0  0  0  0  0  0  0  0  0  0  0
    1.9553   -2.6632   -0.9906 H   0  0  0  0  0  0  0  0  0  0  0  0
   -2.8909   -3.2709   -0.7242 H   0  0  0  0  0  0  0  0  0  0  0  0
   -5.8358   -2.5609   -1.6174 H   0  0  0  0  0  0  0  0  0  0  0  0
   -5.6324   -3.0757    0.8284 H   0  0  0  0  0  0  0  0  0  0  0  0
   -7.8569   -0.7584    0.2155 H   0  0  0  0  0  0  0  0  0  0  0  0
   -6.6121    1.4947    0.5863 H   0  0  0  0  0  0  0  0  0  0  0  0
   -4.7863    3.3114    0.8184 H   0  0  0  0  0  0  0  0  0  0  0  0
   -2.4735    4.2785    0.8316 H   0  0  0  0  0  0  0  0  0  0  0  0
   -0.6505    2.6709    0.3385 H   0  0  0  0  0  0  0  0  0  0  0  0
    0.8161    1.2659   -0.0471 H   0  0  0  0  0  0  0  0  0  0  0  0
    3.4230   -1.9271    1.6338 H   0  0  0  0  0  0  0  0  0  0  0  0
  1  2  1  0
  2  3  2  0
  3  4  1  0
  4  5  2  0
  5  6  1  0
  6  7  2  0
  7  8  1  0
  8  9  2  0
  9 10  1  0
 10 11  2  0
 11 12  1  0
 12 13  2  0
 13 14  1  0
 14 15  1  0
 15 16  1  0
 16 17  2  0
 17 18  1  0
 18 19  1  0
 19 20  2  0
 20 21  1  0
 21 22  1  0
 22 23  2  0
 23 24  1  0
 24 25  2  0
 25 26  1  0
  7 27  1  0
 27 28  2  0
 28  1  1  0
 27  3  1  0
 26  8  1  0
 25 10  1  0
 24 13  1  0
 18 14  2  0
 23 19  1  0
  1 29  1  0
  1 30  1  0
  2 31  1  0
  4 32  1  0
  5 33  1  0
  6 34  1  0
  9 35  1  0
 12 36  1  0
 15 37  1  0
 15 38  1  0
 16 39  1  0
 17 40  1  0
 20 41  1  0
 21 42  1  0
 22 43  1  0
 26 44  1  0
 28 45  1  0
M  END
