
     RDKit          3D

 47 54  0  0  0  0  0  0  0  0999 V2000
   -5.9576    1.9931   -1.8981 C   0  0  0  0  0  0  0  0  0  0  0  0
   -6.9595    1.4177   -0.9361 C   0  0  0  0  0  0  0  0  0  0  0  0
   -6.3117    0.7268    0.0106 C   0  0  0  0  0  0  0  0  0  0  0  0
   -6.8313   -0.0080    1.1357 C   0  0  0  0  0  0  0  0  0  0  0  0
   -5.9481   -0.6282    1.9428 C   0  0  0  0  0  0  0  0  0  0  0  0
   -4.4998   -0.5666    1.7095 C   0  0  0  0  0  0  0  0  0  0  0  0
   -3.9450    0.1013    0.6653 C   0  0  0  0  0  0  0  0  0  0  0  0
   -2.5175    0.1252    0.5482 C   0  0  0  0  0  0  0  0  0  0  0  0
   -1.6824    1.2208    0.6474 C   0  0  0  0  0  0  0  0  0  0  0  0
   -0.3155    0.8609    0.4548 C   0  0  0  0  0  0  0  0  0  0  0  0
    1.1868    1.7598    0.4651 S   0  0  0  0  0  0  0  0  0  0  0  0
    2.1232    0.3353    0.1321 C   0  0  0  0  0  0  0  0  0  0  0  0
    1.2443   -0.7310    0.0311 C   0  0  0  0  0  0  0  0  0  0  0  0
    1.7411   -2.0400   -0.2430 C   0  0  0  0  0  0  0  0  0  0  0  0
    1.1185   -3.2445   -0.3938 C   0  0  0  0  0  0  0  0  0  0  0  0
    2.1281   -4.1484   -0.6466 N   0  0  0  0  0  0  0  0  0  0  0  0
    3.3518   -3.5063   -0.6502 C   0  0  0  0  0  0  0  0  0  0  0  0
    3.1357   -2.1670   -0.3969 C   0  0  0  0  0  0  0  0  0  0  0  0
    4.1266   -1.1628   -0.3164 C   0  0  0  0  0  0  0  0  0  0  0  0
    5.5518   -1.3994   -0.4920 C   0  0  0  0  0  0  0  0  0  0  0  0
    6.5316   -0.3922   -0.4101 C   0  0  0  0  0  0  0  0  0  0  0  0
    5.9501    0.8376   -0.1420 C   0  0  0  0  0  0  0  0  0  0  0  0
    6.6513    2.0075   -0.0052 C   0  0  0  0  0  0  0  0  0  0  0  0
    5.7294    2.9931    0.2531 N   0  0  0  0  0  0  0  0  0  0  0  0
    4.4563    2.4603    0.2808 C   0  0  0  0  0  0  0  0  0  0  0  0
    4.5504    1.1090    0.0372 C   0  0  0  0  0  0  0  0  0  0  0  0
    3.5311    0.1388   -0.0347 C   0  0  0  0  0  0  0  0  0  0  0  0
   -0.1298   -0.4730    0.2064 C   0  0  0  0  0  0  0  0  0  0  0  0
   -1.6520   -1.3237    0.2016 S   0  0  0  0  0  0  0  0  0  0  0  0
   -4.8728    0.7859   -0.2312 C   0  0  0  0  0  0  0  0  0  0  0  0
   -4.6476    1.5134   -1.3365 C   0  0  0  0  0  0  0  0  0  0  0  0
   -6.1167    1.6069   -2.9092 H   0  0  0  0  0  0  0  0  0  0  0  0
   -6.0044    3.0860   -1.9083 H   0  0  0  0  0  0  0  0  0  0  0  0
   -8.0277    1.5461   -1.0147 H   0  0  0  0  0  0  0  0  0  0  0  0
   -7.8995   -0.0532    1.3092 H   0  0  0  0  0  0  0  0  0  0  0  0
   -6.2893   -1.1966    2.8026 H   0  0  0  0  0  0  0  0  0  0  0  0
   -3.8828   -1.0867    2.4383 H   0  0  0  0  0  0  0  0  0  0  0  0
   -2.0278    2.2270    0.8507 H   0  0  0  0  0  0  0  0  0  0  0  0
    0.0904   -3.5725   -0.3546 H   0  0  0  0  0  0  0  0  0  0  0  0
    1.9927   -5.1383   -0.8069 H   0  0  0  0  0  0  0  0  0  0  0  0
    4.2516   -4.0764   -0.8345 H   0  0  0  0  0  0  0  0  0  0  0  0
    5.8936   -2.4120   -0.6998 H   0  0  0  0  0  0  0  0  0  0  0  0
    7.5879   -0.5762   -0.5417 H   0  0  0  0  0  0  0  0  0  0  0  0
    7.7065    2.2363   -0.0650 H   0  0  0  0  0  0  0  0  0  0  0  0
    5.9487    3.9694    0.4021 H   0  0  0  0  0  0  0  0  0  0  0  0
    3.6238    3.1190    0.4741 H   0  0  0  0  0  0  0  0  0  0  0  0
   -3.6846    1.7261   -1.7748 H   0  0  0  0  0  0  0  0  0  0  0  0
  1  2  1  0
  2  3  2  0
  3  4  1  0
  4  5  2  0
  5  6  1  0
  6  7  2  0
  7  8  1  0
  8  9  2  0
  9 10  1  0
 10 11  1  0
 11 12  1  0
 12 13  2  0
 13 14  1  0
 14 15  2  0
 15 16  1  0
 16 17  1  0
 17 18  2  0
 18 19  1  0
 19 20  1  0
 20 21  2  0
 21 22  1  0
 22 23  2  0
 23 24  1  0
 24 25  1  0
 25 26  2  0
 26 27  1  0
 13 28  1  0
 28 29  1  0
  7 30  1  0
 30 31  2  0
 31  1  1  0
 30  3  1  0
 29  8  1  0
 28 10  2  0
 27 12  1  0
 18 14  1  0
 27 19  2  0
 26 22  1  0
  1 32  1  0
  1 33  1  0
  2 34  1  0
  4 35  1  0
  5 36  1  0
  6 37  1  0
  9 38  1  0
 15 39  1  0
 16 40  1  0
 17 41  1  0
 20 42  1  0
 21 43  1  0
 23 44  1  0
 24 45  1  0
 25 46  1  0
 31 47  1  0
M  END
