
     RDKit          3D

 32 36  0  0  0  0  0  0  0  0999 V2000
   -3.6279    2.2663    1.3798 C   0  0  0  0  0  0  0  0  0  0  0  0
   -4.6662    1.3962    0.7486 C   0  0  0  0  0  0  0  0  0  0  0  0
   -4.0593    0.3958    0.0981 C   0  0  0  0  0  0  0  0  0  0  0  0
   -4.6679   -0.6699   -0.6473 C   0  0  0  0  0  0  0  0  0  0  0  0
   -3.8503   -1.5676   -1.2196 C   0  0  0  0  0  0  0  0  0  0  0  0
   -2.3929   -1.4795   -1.0993 C   0  0  0  0  0  0  0  0  0  0  0  0
   -1.7177   -0.5095   -0.4158 C   0  0  0  0  0  0  0  0  0  0  0  0
   -0.2572   -0.5974   -0.4142 C   0  0  0  0  0  0  0  0  0  0  0  0
    0.5630   -1.5493   -1.0228 C   0  0  0  0  0  0  0  0  0  0  0  0
    1.9540   -1.3173   -0.8082 C   0  0  0  0  0  0  0  0  0  0  0  0
    3.4372   -2.1354   -1.2989 S   0  0  0  0  0  0  0  0  0  0  0  0
    4.3513   -0.9689   -0.4731 C   0  0  0  0  0  0  0  0  0  0  0  0
    5.7717   -0.9027   -0.3692 C   0  0  0  0  0  0  0  0  0  0  0  0
    6.1733    0.1584    0.3642 C   0  0  0  0  0  0  0  0  0  0  0  0
    4.6890    1.1982    1.0047 Si  0  0  0  0  0  4  0  0  0  0  0  0
    3.5705   -0.0152    0.1385 C   0  0  0  0  0  0  0  0  0  0  0  0
    2.1943   -0.2080   -0.0491 C   0  0  0  0  0  0  0  0  0  0  0  0
    0.7255    0.5728    0.4170 S   0  0  0  0  0  0  0  0  0  0  0  0
   -2.5972    0.4983    0.2285 C   0  0  0  0  0  0  0  0  0  0  0  0
   -2.3482    1.5893    0.9760 C   0  0  0  0  0  0  0  0  0  0  0  0
   -3.7357    2.2853    2.4683 H   0  0  0  0  0  0  0  0  0  0  0  0
   -3.6738    3.2861    0.9868 H   0  0  0  0  0  0  0  0  0  0  0  0
   -5.7300    1.5624    0.8164 H   0  0  0  0  0  0  0  0  0  0  0  0
   -5.7456   -0.7329   -0.7348 H   0  0  0  0  0  0  0  0  0  0  0  0
   -4.2559   -2.3943   -1.7951 H   0  0  0  0  0  0  0  0  0  0  0  0
   -1.8881   -2.2844   -1.6220 H   0  0  0  0  0  0  0  0  0  0  0  0
    0.2136   -2.3906   -1.6055 H   0  0  0  0  0  0  0  0  0  0  0  0
    6.4366   -1.6235   -0.8283 H   0  0  0  0  0  0  0  0  0  0  0  0
    7.1843    0.4482    0.6021 H   0  0  0  0  0  0  0  0  0  0  0  0
    4.7152    2.5562    0.4071 H   0  0  0  0  0  0  0  0  0  0  0  0
    4.6286    1.1516    2.4866 H   0  0  0  0  0  0  0  0  0  0  0  0
   -1.3941    1.9812    1.2806 H   0  0  0  0  0  0  0  0  0  0  0  0
  1  2  1  0
  2  3  2  0
  3  4  1  0
  4  5  2  0
  5  6  1  0
  6  7  2  0
  7  8  1  0
  8  9  2  0
  9 10  1  0
 10 11  1  0
 11 12  1  0
 12 13  1  0
 13 14  2  0
 14 15  1  0
 15 16  1  0
 16 17  1  0
 17 18  1  0
  7 19  1  0
 19 20  2  0
 20  1  1  0
 19  3  1  0
 18  8  1  0
 17 10  2  0
 16 12  2  0
  1 21  1  0
  1 22  1  0
  2 23  1  0
  4 24  1  0
  5 25  1  0
  6 26  1  0
  9 27  1  0
 13 28  1  0
 14 29  1  0
 15 30  1  0
 15 31  1  0
 20 32  1  0
M  END
