
     RDKit          3D

 47 53  0  0  0  0  0  0  0  0999 V2000
   -6.1876    2.4851    0.5978 C   0  0  0  0  0  0  0  0  0  0  0  0
   -7.2048    1.4714    0.1517 C   0  0  0  0  0  0  0  0  0  0  0  0
   -6.5749    0.3431   -0.1993 C   0  0  0  0  0  0  0  0  0  0  0  0
   -7.1116   -0.9044   -0.6815 C   0  0  0  0  0  0  0  0  0  0  0  0
   -6.2435   -1.8977   -0.9592 C   0  0  0  0  0  0  0  0  0  0  0  0
   -4.7941   -1.7389   -0.7891 C   0  0  0  0  0  0  0  0  0  0  0  0
   -4.2295   -0.5901   -0.3404 C   0  0  0  0  0  0  0  0  0  0  0  0
   -2.7660   -0.5210   -0.2164 C   0  0  0  0  0  0  0  0  0  0  0  0
   -2.0129    0.2347   -1.1231 C   0  0  0  0  0  0  0  0  0  0  0  0
   -0.6635    0.3881   -1.1147 N   0  0  0  0  0  0  0  0  0  0  0  0
   -0.0417   -0.2774   -0.1059 C   0  0  0  0  0  0  0  0  0  0  0  0
   -0.7248   -1.0436    0.8308 C   0  0  0  0  0  0  0  0  0  0  0  0
   -2.1049   -1.1956    0.8156 C   0  0  0  0  0  0  0  0  0  0  0  0
    0.1444   -1.5922    1.7229 O   0  0  0  0  0  0  0  0  0  0  0  0
    1.3908   -1.1763    1.3562 C   0  0  0  0  0  0  0  0  0  0  0  0
    2.5740   -1.5093    2.0041 C   0  0  0  0  0  0  0  0  0  0  0  0
    3.7710   -0.9856    1.4819 C   0  0  0  0  0  0  0  0  0  0  0  0
    4.9695   -1.3095    2.1199 C   0  0  0  0  0  0  0  0  0  0  0  0
    6.1861   -0.8225    1.6511 C   0  0  0  0  0  0  0  0  0  0  0  0
    6.2413    0.0049    0.5277 C   0  0  0  0  0  0  0  0  0  0  0  0
    7.4869    0.4789    0.0813 C   0  0  0  0  0  0  0  0  0  0  0  0
    7.5837    1.3055   -1.0345 C   0  0  0  0  0  0  0  0  0  0  0  0
    6.4333    1.6678   -1.7173 C   0  0  0  0  0  0  0  0  0  0  0  0
    5.1884    1.2024   -1.2825 C   0  0  0  0  0  0  0  0  0  0  0  0
    5.0467    0.3587   -0.1507 C   0  0  0  0  0  0  0  0  0  0  0  0
    3.7865   -0.1444    0.3332 C   0  0  0  0  0  0  0  0  0  0  0  0
    2.5372    0.1539   -0.2778 C   0  0  0  0  0  0  0  0  0  0  0  0
    1.3322   -0.3639    0.2350 C   0  0  0  0  0  0  0  0  0  0  0  0
   -5.1346    0.5073   -0.0252 C   0  0  0  0  0  0  0  0  0  0  0  0
   -4.8889    1.7420    0.4388 C   0  0  0  0  0  0  0  0  0  0  0  0
   -6.3504    2.7729    1.6406 H   0  0  0  0  0  0  0  0  0  0  0  0
   -6.2123    3.3740   -0.0394 H   0  0  0  0  0  0  0  0  0  0  0  0
   -8.2698    1.6418    0.1288 H   0  0  0  0  0  0  0  0  0  0  0  0
   -8.1808   -1.0228   -0.8081 H   0  0  0  0  0  0  0  0  0  0  0  0
   -6.5999   -2.8563   -1.3241 H   0  0  0  0  0  0  0  0  0  0  0  0
   -4.1873   -2.6018   -1.0532 H   0  0  0  0  0  0  0  0  0  0  0  0
   -2.5106    0.7690   -1.9316 H   0  0  0  0  0  0  0  0  0  0  0  0
   -2.6206   -1.7904    1.5585 H   0  0  0  0  0  0  0  0  0  0  0  0
    2.5545   -2.1504    2.8785 H   0  0  0  0  0  0  0  0  0  0  0  0
    4.9741   -1.9513    2.9991 H   0  0  0  0  0  0  0  0  0  0  0  0
    7.0963   -1.1000    2.1789 H   0  0  0  0  0  0  0  0  0  0  0  0
    8.4004    0.2046    0.6052 H   0  0  0  0  0  0  0  0  0  0  0  0
    8.5541    1.6635   -1.3668 H   0  0  0  0  0  0  0  0  0  0  0  0
    6.4963    2.3127   -2.5899 H   0  0  0  0  0  0  0  0  0  0  0  0
    4.3207    1.5177   -1.8552 H   0  0  0  0  0  0  0  0  0  0  0  0
    2.4676    0.7873   -1.1557 H   0  0  0  0  0  0  0  0  0  0  0  0
   -3.9210    2.1579    0.6736 H   0  0  0  0  0  0  0  0  0  0  0  0
  1  2  1  0
  2  3  2  0
  3  4  1  0
  4  5  2  0
  5  6  1  0
  6  7  2  0
  7  8  1  0
  8  9  2  0
  9 10  1  0
 10 11  2  0
 11 12  1  0
 12 13  2  0
 12 14  1  0
 14 15  1  0
 15 16  2  0
 16 17  1  0
 17 18  2  0
 18 19  1  0
 19 20  2  0
 20 21  1  0
 21 22  2  0
 22 23  1  0
 23 24  2  0
 24 25  1  0
 25 26  2  0
 26 27  1  0
 27 28  2  0
  7 29  1  0
 29 30  2  0
 30  1  1  0
 29  3  1  0
 13  8  1  0
 28 15  1  0
 28 11  1  0
 26 17  1  0
 25 20  1  0
  1 31  1  0
  1 32  1  0
  2 33  1  0
  4 34  1  0
  5 35  1  0
  6 36  1  0
  9 37  1  0
 13 38  1  0
 16 39  1  0
 18 40  1  0
 19 41  1  0
 21 42  1  0
 22 43  1  0
 23 44  1  0
 24 45  1  0
 27 46  1  0
 30 47  1  0
M  END
