
     RDKit          3D

 41 47  0  0  0  0  0  0  0  0999 V2000
   -4.7724    1.4669    0.2640 C   0  0  0  0  0  0  0  0  0  0  0  0
   -6.2042    1.0849    0.5155 C   0  0  0  0  0  0  0  0  0  0  0  0
   -6.2939   -0.2394    0.6990 C   0  0  0  0  0  0  0  0  0  0  0  0
   -4.9840   -0.8274    0.5884 C   0  0  0  0  0  0  0  0  0  0  0  0
   -4.0787    0.1295    0.3208 C   0  0  0  0  0  0  0  0  0  0  0  0
   -2.6423   -0.0140    0.1558 C   0  0  0  0  0  0  0  0  0  0  0  0
   -1.6940    0.8764    0.7016 C   0  0  0  0  0  0  0  0  0  0  0  0
   -0.2588    0.7406    0.5442 C   0  0  0  0  0  0  0  0  0  0  0  0
    0.6216    1.6834    1.1452 C   0  0  0  0  0  0  0  0  0  0  0  0
    0.2547    2.7545    1.8850 N   0  0  0  0  0  0  0  0  0  0  0  0
    1.6490    3.5351    2.3566 S   0  0  0  0  0  0  0  0  0  0  0  0
    2.7923    2.5544    1.6430 N   0  0  0  0  0  0  0  0  0  0  0  0
    2.0694    1.6202    1.0408 C   0  0  0  0  0  0  0  0  0  0  0  0
    2.6601    0.5381    0.2830 C   0  0  0  0  0  0  0  0  0  0  0  0
    4.0691    0.3518    0.0985 C   0  0  0  0  0  0  0  0  0  0  0  0
    5.2231    1.0603    0.5306 C   0  0  0  0  0  0  0  0  0  0  0  0
    6.5093    0.6302    0.1863 C   0  0  0  0  0  0  0  0  0  0  0  0
    6.6816   -0.5040   -0.5888 C   0  0  0  0  0  0  0  0  0  0  0  0
    5.5741   -1.2258   -1.0316 C   0  0  0  0  0  0  0  0  0  0  0  0
    4.2797   -0.7871   -0.6811 C   0  0  0  0  0  0  0  0  0  0  0  0
    2.8050   -1.5389   -1.1285 S   0  0  0  0  0  0  0  0  0  0  0  0
    1.8101   -0.3886   -0.3108 C   0  0  0  0  0  0  0  0  0  0  0  0
    0.3935   -0.3095   -0.1983 C   0  0  0  0  0  0  0  0  0  0  0  0
   -0.5785   -1.1687   -0.7522 C   0  0  0  0  0  0  0  0  0  0  0  0
   -0.3947   -2.2724   -1.5539 C   0  0  0  0  0  0  0  0  0  0  0  0
   -1.6331   -2.7772   -1.8835 N   0  0  0  0  0  0  0  0  0  0  0  0
   -2.6203   -2.0152   -1.3111 C   0  0  0  0  0  0  0  0  0  0  0  0
   -2.0086   -1.0230   -0.5811 C   0  0  0  0  0  0  0  0  0  0  0  0
   -4.6626    1.9345   -0.7196 H   0  0  0  0  0  0  0  0  0  0  0  0
   -4.4196    2.1499    1.0428 H   0  0  0  0  0  0  0  0  0  0  0  0
   -7.0270    1.7827    0.5451 H   0  0  0  0  0  0  0  0  0  0  0  0
   -7.1948   -0.7977    0.9029 H   0  0  0  0  0  0  0  0  0  0  0  0
   -4.7890   -1.8799    0.7282 H   0  0  0  0  0  0  0  0  0  0  0  0
   -2.0603    1.7126    1.3000 H   0  0  0  0  0  0  0  0  0  0  0  0
    5.1279    1.9552    1.1406 H   0  0  0  0  0  0  0  0  0  0  0  0
    7.3740    1.1922    0.5311 H   0  0  0  0  0  0  0  0  0  0  0  0
    7.6829   -0.8347   -0.8539 H   0  0  0  0  0  0  0  0  0  0  0  0
    5.7094   -2.1162   -1.6398 H   0  0  0  0  0  0  0  0  0  0  0  0
    0.4805   -2.7644   -1.9488 H   0  0  0  0  0  0  0  0  0  0  0  0
   -1.7909   -3.5820   -2.4764 H   0  0  0  0  0  0  0  0  0  0  0  0
   -3.6598   -2.2532   -1.4891 H   0  0  0  0  0  0  0  0  0  0  0  0
  1  2  1  0
  2  3  2  0
  3  4  1  0
  4  5  2  0
  5  6  1  0
  6  7  2  0
  7  8  1  0
  8  9  1  0
  9 10  2  0
 10 11  1  0
 11 12  1  0
 12 13  2  0
 13 14  1  0
 14 15  1  0
 15 16  2  0
 16 17  1  0
 17 18  2  0
 18 19  1  0
 19 20  2  0
 20 21  1  0
 21 22  1  0
 22 23  1  0
 23 24  1  0
 24 25  2  0
 25 26  1  0
 26 27  1  0
 27 28  2  0
  5  1  1  0
 28  6  1  0
 23  8  2  0
 28 24  1  0
 13  9  1  0
 22 14  2  0
 20 15  1  0
  1 29  1  0
  1 30  1  0
  2 31  1  0
  3 32  1  0
  4 33  1  0
  7 34  1  0
 16 35  1  0
 17 36  1  0
 18 37  1  0
 19 38  1  0
 25 39  1  0
 26 40  1  0
 27 41  1  0
M  END
