
     RDKit          3D

 44 51  0  0  0  0  0  0  0  0999 V2000
    5.2555   -1.8168   -0.2708 C   0  0  0  0  0  0  0  0  0  0  0  0
    6.7257   -1.5654   -0.4338 C   0  0  0  0  0  0  0  0  0  0  0  0
    6.9526   -0.2472   -0.4791 C   0  0  0  0  0  0  0  0  0  0  0  0
    5.7033    0.4577   -0.3515 C   0  0  0  0  0  0  0  0  0  0  0  0
    4.6867   -0.4145   -0.2189 C   0  0  0  0  0  0  0  0  0  0  0  0
    3.2503   -0.1554   -0.0617 C   0  0  0  0  0  0  0  0  0  0  0  0
    2.2821   -1.1653   -0.1746 C   0  0  0  0  0  0  0  0  0  0  0  0
    0.8682   -0.9618   -0.0425 C   0  0  0  0  0  0  0  0  0  0  0  0
    0.0140   -2.1084   -0.0910 C   0  0  0  0  0  0  0  0  0  0  0  0
    0.4452   -3.3743   -0.2648 N   0  0  0  0  0  0  0  0  0  0  0  0
   -0.8749   -4.3574   -0.2017 S   0  0  0  0  0  0  0  0  0  0  0  0
   -2.0502   -3.2375    0.0356 N   0  0  0  0  0  0  0  0  0  0  0  0
   -1.4867   -2.0146    0.0794 C   0  0  0  0  0  0  0  0  0  0  0  0
   -2.1721   -0.7539    0.2364 C   0  0  0  0  0  0  0  0  0  0  0  0
   -3.6331   -0.7314    0.4092 C   0  0  0  0  0  0  0  0  0  0  0  0
   -4.3645   -1.8611    0.5535 N   0  0  0  0  0  0  0  0  0  0  0  0
   -5.7083   -1.8141    0.7187 C   0  0  0  0  0  0  0  0  0  0  0  0
   -6.4424   -0.6500    0.7536 C   0  0  0  0  0  0  0  0  0  0  0  0
   -5.7506    0.5361    0.6061 C   0  0  0  0  0  0  0  0  0  0  0  0
   -4.3462    0.4950    0.4371 C   0  0  0  0  0  0  0  0  0  0  0  0
   -3.5089    1.6057    0.2363 C   0  0  0  0  0  0  0  0  0  0  0  0
   -3.9277    2.9082    0.0938 C   0  0  0  0  0  0  0  0  0  0  0  0
   -2.8168    3.6560   -0.1997 N   0  0  0  0  0  0  0  0  0  0  0  0
   -1.7130    2.8371   -0.2662 C   0  0  0  0  0  0  0  0  0  0  0  0
   -2.0851    1.5648    0.1035 C   0  0  0  0  0  0  0  0  0  0  0  0
   -1.2639    0.3991    0.1746 C   0  0  0  0  0  0  0  0  0  0  0  0
    0.2192    0.2945    0.1627 C   0  0  0  0  0  0  0  0  0  0  0  0
    1.2032    1.3379    0.4221 C   0  0  0  0  0  0  0  0  0  0  0  0
    0.9382    2.5771    0.8721 N   0  0  0  0  0  0  0  0  0  0  0  0
    2.3566    3.3964    1.0201 S   0  0  0  0  0  0  0  0  0  0  0  0
    3.4189    2.2295    0.5585 N   0  0  0  0  0  0  0  0  0  0  0  0
    2.7157    1.1138    0.2895 C   0  0  0  0  0  0  0  0  0  0  0  0
    4.8733   -2.3804   -1.1281 H   0  0  0  0  0  0  0  0  0  0  0  0
    5.0592   -2.3653    0.6561 H   0  0  0  0  0  0  0  0  0  0  0  0
    7.4766   -2.3374   -0.5042 H   0  0  0  0  0  0  0  0  0  0  0  0
    7.9118    0.2351   -0.5907 H   0  0  0  0  0  0  0  0  0  0  0  0
    5.6476    1.5356   -0.3707 H   0  0  0  0  0  0  0  0  0  0  0  0
    2.6256   -2.1825   -0.3747 H   0  0  0  0  0  0  0  0  0  0  0  0
   -6.1872   -2.7835    0.8251 H   0  0  0  0  0  0  0  0  0  0  0  0
   -7.5169   -0.6687    0.8871 H   0  0  0  0  0  0  0  0  0  0  0  0
   -6.2869    1.4789    0.6204 H   0  0  0  0  0  0  0  0  0  0  0  0
   -4.9031    3.3732    0.1325 H   0  0  0  0  0  0  0  0  0  0  0  0
   -2.8141    4.6488   -0.3969 H   0  0  0  0  0  0  0  0  0  0  0  0
   -0.7773    3.2661   -0.5890 H   0  0  0  0  0  0  0  0  0  0  0  0
  1  2  1  0
  2  3  2  0
  3  4  1  0
  4  5  2  0
  5  6  1  0
  6  7  2  0
  7  8  1  0
  8  9  1  0
  9 10  2  0
 10 11  1  0
 11 12  1  0
 12 13  2  0
 13 14  1  0
 14 15  1  0
 15 16  2  0
 16 17  1  0
 17 18  2  0
 18 19  1  0
 19 20  2  0
 20 21  1  0
 21 22  2  0
 22 23  1  0
 23 24  1  0
 24 25  2  0
 25 26  1  0
 26 27  1  0
 27 28  1  0
 28 29  2  0
 29 30  1  0
 30 31  1  0
 31 32  2  0
  5  1  1  0
 32  6  1  0
 27  8  2  0
 32 28  1  0
 13  9  1  0
 26 14  2  0
 20 15  1  0
 25 21  1  0
  1 33  1  0
  1 34  1  0
  2 35  1  0
  3 36  1  0
  4 37  1  0
  7 38  1  0
 17 39  1  0
 18 40  1  0
 19 41  1  0
 22 42  1  0
 23 43  1  0
 24 44  1  0
M  END
