
     RDKit          3D

 38 43  0  0  0  0  0  0  0  0999 V2000
   -5.4539    0.3836   -0.8847 C   0  0  0  0  0  0  0  0  0  0  0  0
   -6.7128    0.5657   -0.0828 C   0  0  0  0  0  0  0  0  0  0  0  0
   -6.4103    0.6644    1.2184 C   0  0  0  0  0  0  0  0  0  0  0  0
   -4.9831    0.5608    1.3874 C   0  0  0  0  0  0  0  0  0  0  0  0
   -4.3942    0.3971    0.1886 C   0  0  0  0  0  0  0  0  0  0  0  0
   -2.9761    0.2462   -0.1454 C   0  0  0  0  0  0  0  0  0  0  0  0
   -1.9795    0.2559    0.8355 C   0  0  0  0  0  0  0  0  0  0  0  0
   -0.6692    0.1058    0.4144 C   0  0  0  0  0  0  0  0  0  0  0  0
    0.5950    0.0830    1.2899 C   0  0  0  0  0  0  0  0  0  0  0  0
    1.5866   -0.1050    0.1900 C   0  0  0  0  0  0  0  0  0  0  0  0
    1.0148   -0.1758   -1.0586 C   0  0  0  0  0  0  0  0  0  0  0  0
    1.9566   -0.3466   -2.0211 N   0  0  0  0  0  0  0  0  0  0  0  0
    3.2037   -0.3926   -1.4029 C   0  0  0  0  0  0  0  0  0  0  0  0
    4.5044   -0.5531   -1.9404 C   0  0  0  0  0  0  0  0  0  0  0  0
    5.6342   -0.5673   -1.0931 C   0  0  0  0  0  0  0  0  0  0  0  0
    5.3298   -0.4128    0.2609 C   0  0  0  0  0  0  0  0  0  0  0  0
    6.3011   -0.4015    1.2364 C   0  0  0  0  0  0  0  0  0  0  0  0
    5.6253   -0.1945    2.8165 S   0  0  0  0  0  0  0  0  0  0  0  0
    4.0134   -0.1170    2.2053 C   0  0  0  0  0  0  0  0  0  0  0  0
    4.0548   -0.2496    0.8495 C   0  0  0  0  0  0  0  0  0  0  0  0
    2.9435   -0.2408   -0.0393 C   0  0  0  0  0  0  0  0  0  0  0  0
   -0.3977   -0.0480   -0.9618 C   0  0  0  0  0  0  0  0  0  0  0  0
   -1.4196   -0.0486   -1.8694 C   0  0  0  0  0  0  0  0  0  0  0  0
   -2.7089    0.0967   -1.4796 N   0  0  0  0  0  0  0  0  0  0  0  0
   -5.4767   -0.5698   -1.4224 H   0  0  0  0  0  0  0  0  0  0  0  0
   -5.3274    1.2097   -1.5921 H   0  0  0  0  0  0  0  0  0  0  0  0
   -7.7046    0.6085   -0.5063 H   0  0  0  0  0  0  0  0  0  0  0  0
   -7.1107    0.8004    2.0285 H   0  0  0  0  0  0  0  0  0  0  0  0
   -4.5045    0.6127    2.3527 H   0  0  0  0  0  0  0  0  0  0  0  0
   -2.2090    0.3752    1.8863 H   0  0  0  0  0  0  0  0  0  0  0  0
    0.7300    1.0359    1.8073 H   0  0  0  0  0  0  0  0  0  0  0  0
    0.5787   -0.7651    1.9787 H   0  0  0  0  0  0  0  0  0  0  0  0
    1.7985   -0.4281   -3.0157 H   0  0  0  0  0  0  0  0  0  0  0  0
    4.6415   -0.6668   -3.0132 H   0  0  0  0  0  0  0  0  0  0  0  0
    6.6376   -0.6887   -1.4828 H   0  0  0  0  0  0  0  0  0  0  0  0
    7.3722   -0.5018    1.1283 H   0  0  0  0  0  0  0  0  0  0  0  0
    3.1735    0.0169    2.8705 H   0  0  0  0  0  0  0  0  0  0  0  0
   -1.2570   -0.1636   -2.9336 H   0  0  0  0  0  0  0  0  0  0  0  0
  1  2  1  0
  2  3  2  0
  3  4  1  0
  4  5  2  0
  5  6  1  0
  6  7  2  0
  7  8  1  0
  8  9  1  0
  9 10  1  0
 10 11  2  0
 11 12  1  0
 12 13  1  0
 13 14  1  0
 14 15  2  0
 15 16  1  0
 16 17  2  0
 17 18  1  0
 18 19  1  0
 19 20  2  0
 20 21  1  0
 11 22  1  0
 22 23  1  0
 23 24  2  0
  5  1  1  0
 24  6  1  0
 22  8  2  0
 21 10  1  0
 21 13  2  0
 20 16  1  0
  1 25  1  0
  1 26  1  0
  2 27  1  0
  3 28  1  0
  4 29  1  0
  7 30  1  0
  9 31  1  0
  9 32  1  0
 12 33  1  0
 14 34  1  0
 15 35  1  0
 17 36  1  0
 19 37  1  0
 23 38  1  0
M  END
