
     RDKit          3D

 35 40  0  0  0  0  0  0  0  0999 V2000
    5.0990   -1.2203    0.2796 C   0  0  0  0  0  0  0  0  0  0  0  0
    6.3673   -0.4240    0.1702 C   0  0  0  0  0  0  0  0  0  0  0  0
    6.0714    0.8688   -0.0178 C   0  0  0  0  0  0  0  0  0  0  0  0
    4.6404    1.0318   -0.0477 C   0  0  0  0  0  0  0  0  0  0  0  0
    4.0361   -0.1584    0.1215 C   0  0  0  0  0  0  0  0  0  0  0  0
    2.6215   -0.2840    0.1334 C   0  0  0  0  0  0  0  0  0  0  0  0
    1.8507   -1.4305    0.2956 C   0  0  0  0  0  0  0  0  0  0  0  0
    0.4826   -1.0602    0.2361 C   0  0  0  0  0  0  0  0  0  0  0  0
   -0.7449   -1.7377    0.3286 C   0  0  0  0  0  0  0  0  0  0  0  0
   -1.9408   -0.9879    0.2151 C   0  0  0  0  0  0  0  0  0  0  0  0
   -3.2365   -1.5970    0.2974 C   0  0  0  0  0  0  0  0  0  0  0  0
   -3.5067   -2.9085    0.4856 N   0  0  0  0  0  0  0  0  0  0  0  0
   -5.1744   -3.0662    0.5011 S   0  0  0  0  0  0  0  0  0  0  0  0
   -5.6409   -1.4739    0.2691 N   0  0  0  0  0  0  0  0  0  0  0  0
   -4.4768   -0.8485    0.1839 C   0  0  0  0  0  0  0  0  0  0  0  0
   -4.3689    0.5595   -0.0190 C   0  0  0  0  0  0  0  0  0  0  0  0
   -5.3990    1.4921   -0.1582 C   0  0  0  0  0  0  0  0  0  0  0  0
   -4.7593    2.7014   -0.3301 C   0  0  0  0  0  0  0  0  0  0  0  0
   -3.3973    2.4883   -0.2933 N   0  0  0  0  0  0  0  0  0  0  0  0
   -3.1201    1.1462   -0.0983 C   0  0  0  0  0  0  0  0  0  0  0  0
   -1.9002    0.4242    0.0113 C   0  0  0  0  0  0  0  0  0  0  0  0
   -0.6656    1.0971   -0.0805 C   0  0  0  0  0  0  0  0  0  0  0  0
    0.4803    0.3100    0.0382 C   0  0  0  0  0  0  0  0  0  0  0  0
    1.7539    0.7771   -0.0236 O   0  0  0  0  0  0  0  0  0  0  0  0
    5.0300   -1.7117    1.2552 H   0  0  0  0  0  0  0  0  0  0  0  0
    5.0378   -1.9677   -0.5176 H   0  0  0  0  0  0  0  0  0  0  0  0
    7.3611   -0.8403    0.2348 H   0  0  0  0  0  0  0  0  0  0  0  0
    6.7767    1.6782   -0.1316 H   0  0  0  0  0  0  0  0  0  0  0  0
    4.1528    1.9860   -0.1876 H   0  0  0  0  0  0  0  0  0  0  0  0
    2.2392   -2.4288    0.4415 H   0  0  0  0  0  0  0  0  0  0  0  0
   -0.7744   -2.8129    0.4837 H   0  0  0  0  0  0  0  0  0  0  0  0
   -6.4677    1.3221   -0.1383 H   0  0  0  0  0  0  0  0  0  0  0  0
   -5.1520    3.6992   -0.4759 H   0  0  0  0  0  0  0  0  0  0  0  0
   -2.6993    3.2123   -0.3948 H   0  0  0  0  0  0  0  0  0  0  0  0
   -0.5762    2.1642   -0.2342 H   0  0  0  0  0  0  0  0  0  0  0  0
  1  2  1  0
  2  3  2  0
  3  4  1  0
  4  5  2  0
  5  6  1  0
  6  7  2  0
  7  8  1  0
  8  9  2  0
  9 10  1  0
 10 11  1  0
 11 12  2  0
 12 13  1  0
 13 14  1  0
 14 15  2  0
 15 16  1  0
 16 17  1  0
 17 18  2  0
 18 19  1  0
 19 20  1  0
 20 21  1  0
 21 22  1  0
 22 23  2  0
 23 24  1  0
  5  1  1  0
 24  6  1  0
 23  8  1  0
 21 10  2  0
 15 11  1  0
 20 16  2  0
  1 25  1  0
  1 26  1  0
  2 27  1  0
  3 28  1  0
  4 29  1  0
  7 30  1  0
  9 31  1  0
 17 32  1  0
 18 33  1  0
 19 34  1  0
 22 35  1  0
M  END
