
     RDKit          3D

 47 53  0  0  0  0  0  0  0  0999 V2000
    5.2564   -0.3883    1.7680 C   0  0  0  0  0  0  0  0  0  0  0  0
    6.6263   -0.9448    1.4937 C   0  0  0  0  0  0  0  0  0  0  0  0
    6.6814   -1.4264    0.2430 C   0  0  0  0  0  0  0  0  0  0  0  0
    5.4054   -1.2426   -0.3998 C   0  0  0  0  0  0  0  0  0  0  0  0
    4.5660   -0.6380    0.4564 C   0  0  0  0  0  0  0  0  0  0  0  0
    3.1672   -0.2861    0.2140 C   0  0  0  0  0  0  0  0  0  0  0  0
    2.2058   -1.1333    0.7806 C   0  0  0  0  0  0  0  0  0  0  0  0
    0.8411   -0.9033    0.5988 C   0  0  0  0  0  0  0  0  0  0  0  0
   -0.1089   -1.7596    1.1690 C   0  0  0  0  0  0  0  0  0  0  0  0
   -1.4505   -1.6505    1.0706 N   0  0  0  0  0  0  0  0  0  0  0  0
   -1.8701   -0.5908    0.3348 C   0  0  0  0  0  0  0  0  0  0  0  0
   -0.9929    0.3078   -0.2672 C   0  0  0  0  0  0  0  0  0  0  0  0
   -1.7150    1.2569   -0.9321 O   0  0  0  0  0  0  0  0  0  0  0  0
   -3.0322    0.9709   -0.7589 C   0  0  0  0  0  0  0  0  0  0  0  0
   -4.0786    1.7187   -1.2912 C   0  0  0  0  0  0  0  0  0  0  0  0
   -5.3751    1.2764   -1.0101 C   0  0  0  0  0  0  0  0  0  0  0  0
   -5.6122    0.1339   -0.2292 C   0  0  0  0  0  0  0  0  0  0  0  0
   -6.9183   -0.2997    0.0457 C   0  0  0  0  0  0  0  0  0  0  0  0
   -7.1472   -1.4378    0.8236 C   0  0  0  0  0  0  0  0  0  0  0  0
   -6.0754   -2.1621    1.3401 C   0  0  0  0  0  0  0  0  0  0  0  0
   -4.7672   -1.7533    1.0823 C   0  0  0  0  0  0  0  0  0  0  0  0
   -4.5211   -0.6070    0.2991 C   0  0  0  0  0  0  0  0  0  0  0  0
   -3.1954   -0.1676    0.0206 C   0  0  0  0  0  0  0  0  0  0  0  0
    0.4232    0.2066   -0.1724 C   0  0  0  0  0  0  0  0  0  0  0  0
    1.3924    1.0967   -0.7672 C   0  0  0  0  0  0  0  0  0  0  0  0
    1.0522    2.2297   -1.5506 C   0  0  0  0  0  0  0  0  0  0  0  0
    2.0128    3.0761   -2.1073 C   0  0  0  0  0  0  0  0  0  0  0  0
    3.3546    2.8198   -1.8979 C   0  0  0  0  0  0  0  0  0  0  0  0
    3.7286    1.7160   -1.1352 C   0  0  0  0  0  0  0  0  0  0  0  0
    2.7768    0.8360   -0.5625 C   0  0  0  0  0  0  0  0  0  0  0  0
    4.7771   -0.9254    2.5923 H   0  0  0  0  0  0  0  0  0  0  0  0
    5.3092    0.6801    1.9994 H   0  0  0  0  0  0  0  0  0  0  0  0
    7.4375   -0.9495    2.2059 H   0  0  0  0  0  0  0  0  0  0  0  0
    7.5372   -1.8854   -0.2285 H   0  0  0  0  0  0  0  0  0  0  0  0
    5.1827   -1.5536   -1.4096 H   0  0  0  0  0  0  0  0  0  0  0  0
    2.5364   -1.9920    1.3646 H   0  0  0  0  0  0  0  0  0  0  0  0
    0.2101   -2.6161    1.7619 H   0  0  0  0  0  0  0  0  0  0  0  0
   -3.8925    2.5999   -1.8935 H   0  0  0  0  0  0  0  0  0  0  0  0
   -6.2127    1.8428   -1.4141 H   0  0  0  0  0  0  0  0  0  0  0  0
   -7.7739    0.2470   -0.3451 H   0  0  0  0  0  0  0  0  0  0  0  0
   -8.1658   -1.7591    1.0263 H   0  0  0  0  0  0  0  0  0  0  0  0
   -6.2563   -3.0470    1.9447 H   0  0  0  0  0  0  0  0  0  0  0  0
   -3.9435   -2.3320    1.4943 H   0  0  0  0  0  0  0  0  0  0  0  0
    0.0144    2.4822   -1.7464 H   0  0  0  0  0  0  0  0  0  0  0  0
    1.7036    3.9327   -2.7002 H   0  0  0  0  0  0  0  0  0  0  0  0
    4.1124    3.4722   -2.3227 H   0  0  0  0  0  0  0  0  0  0  0  0
    4.7941    1.5491   -0.9878 H   0  0  0  0  0  0  0  0  0  0  0  0
  1  2  1  0
  2  3  2  0
  3  4  1  0
  4  5  2  0
  5  6  1  0
  6  7  2  0
  7  8  1  0
  8  9  2  0
  9 10  1  0
 10 11  2  0
 11 12  1  0
 12 13  1  0
 13 14  1  0
 14 15  2  0
 15 16  1  0
 16 17  2  0
 17 18  1  0
 18 19  2  0
 19 20  1  0
 20 21  2  0
 21 22  1  0
 22 23  2  0
 12 24  2  0
 24 25  1  0
 25 26  2  0
 26 27  1  0
 27 28  2  0
 28 29  1  0
 29 30  2  0
  5  1  1  0
 30  6  1  0
 24  8  1  0
 30 25  1  0
 23 11  1  0
 23 14  1  0
 22 17  1  0
  1 31  1  0
  1 32  1  0
  2 33  1  0
  3 34  1  0
  4 35  1  0
  7 36  1  0
  9 37  1  0
 15 38  1  0
 16 39  1  0
 18 40  1  0
 19 41  1  0
 20 42  1  0
 21 43  1  0
 26 44  1  0
 27 45  1  0
 28 46  1  0
 29 47  1  0
M  END
