
     RDKit          3D

 45 51  0  0  0  0  0  0  0  0999 V2000
   -5.8227    0.5684    0.0765 C   0  0  0  0  0  0  0  0  0  0  0  0
   -6.8396    1.5496    0.5853 C   0  0  0  0  0  0  0  0  0  0  0  0
   -6.2172    2.5490    1.2200 C   0  0  0  0  0  0  0  0  0  0  0  0
   -4.7964    2.3216    1.1809 C   0  0  0  0  0  0  0  0  0  0  0  0
   -4.5178    1.1803    0.5190 C   0  0  0  0  0  0  0  0  0  0  0  0
   -3.1820    0.6320    0.2765 C   0  0  0  0  0  0  0  0  0  0  0  0
   -1.9798    1.2963    0.6390 C   0  0  0  0  0  0  0  0  0  0  0  0
   -0.6486    0.8402    0.4506 C   0  0  0  0  0  0  0  0  0  0  0  0
    0.2929    1.6752    0.8782 N   0  0  0  0  0  0  0  0  0  0  0  0
    1.5939    1.3308    0.7218 C   0  0  0  0  0  0  0  0  0  0  0  0
    2.0936    0.1544    0.1570 C   0  0  0  0  0  0  0  0  0  0  0  0
    1.1024   -0.7854   -0.2079 C   0  0  0  0  0  0  0  0  0  0  0  0
    1.5591   -2.0639   -0.5798 C   0  0  0  0  0  0  0  0  0  0  0  0
    2.9131   -2.4078   -0.6361 C   0  0  0  0  0  0  0  0  0  0  0  0
    3.9136   -1.4839   -0.3649 C   0  0  0  0  0  0  0  0  0  0  0  0
    5.2738   -1.9387   -0.4634 C   0  0  0  0  0  0  0  0  0  0  0  0
    6.4105   -1.1430   -0.2495 C   0  0  0  0  0  0  0  0  0  0  0  0
    6.0562    0.1680    0.0263 C   0  0  0  0  0  0  0  0  0  0  0  0
    7.0200    1.1302    0.2048 C   0  0  0  0  0  0  0  0  0  0  0  0
    6.3172    2.6718    0.4362 S   0  0  0  0  0  0  0  0  0  0  0  0
    4.7240    2.0378    0.2861 C   0  0  0  0  0  0  0  0  0  0  0  0
    4.7001    0.6681    0.1381 C   0  0  0  0  0  0  0  0  0  0  0  0
    3.5153   -0.1512   -0.0023 C   0  0  0  0  0  0  0  0  0  0  0  0
   -0.3055   -0.4142   -0.1348 C   0  0  0  0  0  0  0  0  0  0  0  0
   -1.5134   -1.0741   -0.5528 C   0  0  0  0  0  0  0  0  0  0  0  0
   -1.6252   -2.2366   -1.2816 C   0  0  0  0  0  0  0  0  0  0  0  0
   -2.9617   -2.5012   -1.4620 N   0  0  0  0  0  0  0  0  0  0  0  0
   -3.7176   -1.4991   -0.9053 C   0  0  0  0  0  0  0  0  0  0  0  0
   -2.8599   -0.5767   -0.3523 C   0  0  0  0  0  0  0  0  0  0  0  0
   -5.8901    0.4962   -1.0135 H   0  0  0  0  0  0  0  0  0  0  0  0
   -5.9942   -0.4073    0.5415 H   0  0  0  0  0  0  0  0  0  0  0  0
   -7.9063    1.4517    0.4550 H   0  0  0  0  0  0  0  0  0  0  0  0
   -6.6845    3.3999    1.6917 H   0  0  0  0  0  0  0  0  0  0  0  0
   -4.0971    3.0063    1.6362 H   0  0  0  0  0  0  0  0  0  0  0  0
   -2.0609    2.2744    1.1162 H   0  0  0  0  0  0  0  0  0  0  0  0
    2.2492    2.0723    1.1602 H   0  0  0  0  0  0  0  0  0  0  0  0
    0.8603   -2.8664   -0.7785 H   0  0  0  0  0  0  0  0  0  0  0  0
    3.1642   -3.4325   -0.9076 H   0  0  0  0  0  0  0  0  0  0  0  0
    5.4563   -2.9833   -0.7260 H   0  0  0  0  0  0  0  0  0  0  0  0
    7.4195   -1.5229   -0.3363 H   0  0  0  0  0  0  0  0  0  0  0  0
    8.0962    1.0240    0.1895 H   0  0  0  0  0  0  0  0  0  0  0  0
    3.9228    2.7572    0.2969 H   0  0  0  0  0  0  0  0  0  0  0  0
   -0.9096   -2.9109   -1.7229 H   0  0  0  0  0  0  0  0  0  0  0  0
   -3.3336   -3.2994   -1.9612 H   0  0  0  0  0  0  0  0  0  0  0  0
   -4.7907   -1.5574   -0.9907 H   0  0  0  0  0  0  0  0  0  0  0  0
  1  2  1  0
  2  3  2  0
  3  4  1  0
  4  5  2  0
  5  6  1  0
  6  7  2  0
  7  8  1  0
  8  9  2  0
  9 10  1  0
 10 11  2  0
 11 12  1  0
 12 13  1  0
 13 14  2  0
 14 15  1  0
 15 16  1  0
 16 17  2  0
 17 18  1  0
 18 19  2  0
 19 20  1  0
 20 21  1  0
 21 22  2  0
 22 23  1  0
 12 24  2  0
 24 25  1  0
 25 26  2  0
 26 27  1  0
 27 28  1  0
 28 29  2  0
  5  1  1  0
 29  6  1  0
 24  8  1  0
 29 25  1  0
 23 11  1  0
 23 15  2  0
 22 18  1  0
  1 30  1  0
  1 31  1  0
  2 32  1  0
  3 33  1  0
  4 34  1  0
  7 35  1  0
 10 36  1  0
 13 37  1  0
 14 38  1  0
 16 39  1  0
 17 40  1  0
 19 41  1  0
 21 42  1  0
 26 43  1  0
 27 44  1  0
 28 45  1  0
M  END
