
     RDKit          3D

 43 49  0  0  0  0  0  0  0  0999 V2000
    5.4847    1.0773    0.0560 C   0  0  0  0  0  0  0  0  0  0  0  0
    6.9027    0.5951    0.1427 C   0  0  0  0  0  0  0  0  0  0  0  0
    6.9150   -0.7330    0.3070 C   0  0  0  0  0  0  0  0  0  0  0  0
    5.5611   -1.2228    0.3445 C   0  0  0  0  0  0  0  0  0  0  0  0
    4.6920   -0.2038    0.2094 C   0  0  0  0  0  0  0  0  0  0  0  0
    3.2240   -0.2242    0.1884 C   0  0  0  0  0  0  0  0  0  0  0  0
    2.4534    0.9045   -0.1577 C   0  0  0  0  0  0  0  0  0  0  0  0
    1.0552    0.9710   -0.2111 C   0  0  0  0  0  0  0  0  0  0  0  0
    0.5736    2.1791   -0.4936 N   0  0  0  0  0  0  0  0  0  0  0  0
   -0.7663    2.3649   -0.4811 C   0  0  0  0  0  0  0  0  0  0  0  0
   -1.7110    1.3642   -0.2995 C   0  0  0  0  0  0  0  0  0  0  0  0
   -3.1533    1.6892   -0.1936 C   0  0  0  0  0  0  0  0  0  0  0  0
   -3.4681    3.0152   -0.2008 N   0  0  0  0  0  0  0  0  0  0  0  0
   -4.7620    3.3573   -0.0249 C   0  0  0  0  0  0  0  0  0  0  0  0
   -5.7781    2.4412    0.1668 C   0  0  0  0  0  0  0  0  0  0  0  0
   -5.4533    1.0885    0.1663 C   0  0  0  0  0  0  0  0  0  0  0  0
   -4.1254    0.6901   -0.0225 C   0  0  0  0  0  0  0  0  0  0  0  0
   -3.6849   -0.7123   -0.1017 C   0  0  0  0  0  0  0  0  0  0  0  0
   -4.5158   -1.7711   -0.2104 C   0  0  0  0  0  0  0  0  0  0  0  0
   -3.5768   -3.3370   -0.5999 Si  0  0  0  0  0  4  0  0  0  0  0  0
   -2.0252   -2.3049   -0.6314 C   0  0  0  0  0  0  0  0  0  0  0  0
   -2.2413   -1.0299   -0.2450 C   0  0  0  0  0  0  0  0  0  0  0  0
   -1.2116    0.0474   -0.1580 C   0  0  0  0  0  0  0  0  0  0  0  0
    0.2040   -0.1420    0.0291 C   0  0  0  0  0  0  0  0  0  0  0  0
    0.9257   -1.3100    0.5078 C   0  0  0  0  0  0  0  0  0  0  0  0
    0.3827   -2.4383    1.0009 N   0  0  0  0  0  0  0  0  0  0  0  0
    1.6053   -3.4609    1.4133 S   0  0  0  0  0  0  0  0  0  0  0  0
    2.9077   -2.5317    1.0254 N   0  0  0  0  0  0  0  0  0  0  0  0
    2.4494   -1.3512    0.5706 C   0  0  0  0  0  0  0  0  0  0  0  0
    5.3070    1.5522   -0.9144 H   0  0  0  0  0  0  0  0  0  0  0  0
    5.2689    1.7837    0.8642 H   0  0  0  0  0  0  0  0  0  0  0  0
    7.7726    1.2308    0.0798 H   0  0  0  0  0  0  0  0  0  0  0  0
    7.7888   -1.3598    0.4010 H   0  0  0  0  0  0  0  0  0  0  0  0
    5.3343   -2.2715    0.4625 H   0  0  0  0  0  0  0  0  0  0  0  0
    2.9758    1.8311   -0.4057 H   0  0  0  0  0  0  0  0  0  0  0  0
   -1.0675    3.4010   -0.6264 H   0  0  0  0  0  0  0  0  0  0  0  0
   -4.9650    4.4246   -0.0375 H   0  0  0  0  0  0  0  0  0  0  0  0
   -6.8015    2.7705    0.3088 H   0  0  0  0  0  0  0  0  0  0  0  0
   -6.2445    0.3596    0.3109 H   0  0  0  0  0  0  0  0  0  0  0  0
   -5.5930   -1.7814   -0.1979 H   0  0  0  0  0  0  0  0  0  0  0  0
   -3.9289   -3.8789   -1.9343 H   0  0  0  0  0  0  0  0  0  0  0  0
   -3.6118   -4.3080    0.5198 H   0  0  0  0  0  0  0  0  0  0  0  0
   -1.0987   -2.7660   -0.9277 H   0  0  0  0  0  0  0  0  0  0  0  0
  1  2  1  0
  2  3  2  0
  3  4  1  0
  4  5  2  0
  5  6  1  0
  6  7  2  0
  7  8  1  0
  8  9  2  0
  9 10  1  0
 10 11  2  0
 11 12  1  0
 12 13  2  0
 13 14  1  0
 14 15  2  0
 15 16  1  0
 16 17  2  0
 17 18  1  0
 18 19  2  0
 19 20  1  0
 20 21  1  0
 21 22  2  0
 22 23  1  0
 23 24  2  0
 24 25  1  0
 25 26  2  0
 26 27  1  0
 27 28  1  0
 28 29  2  0
  5  1  1  0
 29  6  1  0
 24  8  1  0
 29 25  1  0
 23 11  1  0
 17 12  1  0
 22 18  1  0
  1 30  1  0
  1 31  1  0
  2 32  1  0
  3 33  1  0
  4 34  1  0
  7 35  1  0
 10 36  1  0
 14 37  1  0
 15 38  1  0
 16 39  1  0
 19 40  1  0
 20 41  1  0
 20 42  1  0
 21 43  1  0
M  END
