
     RDKit          3D

 44 50  0  0  0  0  0  0  0  0999 V2000
   -5.9021   -0.7682   -1.5422 C   0  0  0  0  0  0  0  0  0  0  0  0
   -7.1941   -0.3780   -0.8881 C   0  0  0  0  0  0  0  0  0  0  0  0
   -6.9396    0.2595    0.2607 C   0  0  0  0  0  0  0  0  0  0  0  0
   -5.5140    0.3427    0.4581 C   0  0  0  0  0  0  0  0  0  0  0  0
   -4.8633   -0.2420   -0.5666 C   0  0  0  0  0  0  0  0  0  0  0  0
   -3.4496   -0.3329   -0.6794 C   0  0  0  0  0  0  0  0  0  0  0  0
   -2.6578   -0.9111   -1.6552 C   0  0  0  0  0  0  0  0  0  0  0  0
   -1.3108   -0.6999   -1.2489 C   0  0  0  0  0  0  0  0  0  0  0  0
    0.2927   -1.0481   -1.8016 S   0  0  0  0  0  0  0  0  0  0  0  0
    1.0387   -0.2584   -0.4142 C   0  0  0  0  0  0  0  0  0  0  0  0
   -0.0091    0.2126    0.3678 C   0  0  0  0  0  0  0  0  0  0  0  0
    0.2453    0.9075    1.5767 C   0  0  0  0  0  0  0  0  0  0  0  0
   -0.5742    1.4645    2.5145 C   0  0  0  0  0  0  0  0  0  0  0  0
    0.2763    1.9970    3.4608 N   0  0  0  0  0  0  0  0  0  0  0  0
    1.5905    1.7655    3.1007 C   0  0  0  0  0  0  0  0  0  0  0  0
    1.5952    1.0740    1.9055 C   0  0  0  0  0  0  0  0  0  0  0  0
    2.7265    0.6334    1.1784 C   0  0  0  0  0  0  0  0  0  0  0  0
    4.0351    0.8717    1.6301 C   0  0  0  0  0  0  0  0  0  0  0  0
    5.1170    0.4243    0.8897 C   0  0  0  0  0  0  0  0  0  0  0  0
    4.9356   -0.2663   -0.3093 C   0  0  0  0  0  0  0  0  0  0  0  0
    6.0897   -0.6837   -0.9958 C   0  0  0  0  0  0  0  0  0  0  0  0
    6.0070   -1.3767   -2.1960 C   0  0  0  0  0  0  0  0  0  0  0  0
    4.7614   -1.6591   -2.7217 C   0  0  0  0  0  0  0  0  0  0  0  0
    3.6059   -1.2470   -2.0446 C   0  0  0  0  0  0  0  0  0  0  0  0
    3.6270   -0.5353   -0.8140 C   0  0  0  0  0  0  0  0  0  0  0  0
    2.4625   -0.0744   -0.0528 C   0  0  0  0  0  0  0  0  0  0  0  0
   -1.3171   -0.0190   -0.0726 C   0  0  0  0  0  0  0  0  0  0  0  0
   -2.6256    0.2081    0.2791 N   0  0  0  0  0  0  0  0  0  0  0  0
   -5.8316   -1.8554   -1.6484 H   0  0  0  0  0  0  0  0  0  0  0  0
   -5.8020   -0.2922   -2.5228 H   0  0  0  0  0  0  0  0  0  0  0  0
   -8.1730   -0.5856   -1.2925 H   0  0  0  0  0  0  0  0  0  0  0  0
   -7.6724    0.6567    0.9467 H   0  0  0  0  0  0  0  0  0  0  0  0
   -5.0915    0.8194    1.3281 H   0  0  0  0  0  0  0  0  0  0  0  0
   -2.9940   -1.4212   -2.5473 H   0  0  0  0  0  0  0  0  0  0  0  0
   -1.6422    1.5522    2.6339 H   0  0  0  0  0  0  0  0  0  0  0  0
   -0.0159    2.4860    4.2973 H   0  0  0  0  0  0  0  0  0  0  0  0
    2.3861    2.1215    3.7403 H   0  0  0  0  0  0  0  0  0  0  0  0
    4.2260    1.4044    2.5565 H   0  0  0  0  0  0  0  0  0  0  0  0
    6.1177    0.6255    1.2676 H   0  0  0  0  0  0  0  0  0  0  0  0
    7.0786   -0.4688   -0.5945 H   0  0  0  0  0  0  0  0  0  0  0  0
    6.9085   -1.6917   -2.7130 H   0  0  0  0  0  0  0  0  0  0  0  0
    4.6729   -2.2005   -3.6600 H   0  0  0  0  0  0  0  0  0  0  0  0
    2.6773   -1.5110   -2.5290 H   0  0  0  0  0  0  0  0  0  0  0  0
   -2.8937    0.7001    1.1181 H   0  0  0  0  0  0  0  0  0  0  0  0
  1  2  1  0
  2  3  2  0
  3  4  1  0
  4  5  2  0
  5  6  1  0
  6  7  2  0
  7  8  1  0
  8  9  1  0
  9 10  1  0
 10 11  2  0
 11 12  1  0
 12 13  2  0
 13 14  1  0
 14 15  1  0
 15 16  2  0
 16 17  1  0
 17 18  2  0
 18 19  1  0
 19 20  2  0
 20 21  1  0
 21 22  2  0
 22 23  1  0
 23 24  2  0
 24 25  1  0
 25 26  2  0
 11 27  1  0
 27 28  1  0
  5  1  1  0
 28  6  1  0
 27  8  2  0
 26 10  1  0
 16 12  1  0
 26 17  1  0
 25 20  1  0
  1 29  1  0
  1 30  1  0
  2 31  1  0
  3 32  1  0
  4 33  1  0
  7 34  1  0
 13 35  1  0
 14 36  1  0
 15 37  1  0
 18 38  1  0
 19 39  1  0
 21 40  1  0
 22 41  1  0
 23 42  1  0
 24 43  1  0
 28 44  1  0
M  END
