
     RDKit          3D

 49 55  0  0  0  0  0  0  0  0999 V2000
    5.9558   -0.0673    1.4749 C   0  0  0  0  0  0  0  0  0  0  0  0
    7.4309   -0.1509    1.2084 C   0  0  0  0  0  0  0  0  0  0  0  0
    7.6489   -0.1682   -0.1124 C   0  0  0  0  0  0  0  0  0  0  0  0
    6.3883   -0.1008   -0.8059 C   0  0  0  0  0  0  0  0  0  0  0  0
    5.3751   -0.0434    0.0791 C   0  0  0  0  0  0  0  0  0  0  0  0
    3.9320    0.0370   -0.1946 C   0  0  0  0  0  0  0  0  0  0  0  0
    3.4264   -0.0102   -1.4921 C   0  0  0  0  0  0  0  0  0  0  0  0
    2.0470    0.0750   -1.7355 C   0  0  0  0  0  0  0  0  0  0  0  0
    1.0925    0.2244   -0.7023 C   0  0  0  0  0  0  0  0  0  0  0  0
    1.6112    0.2156    0.6052 C   0  0  0  0  0  0  0  0  0  0  0  0
    0.7346    0.2932    1.6817 C   0  0  0  0  0  0  0  0  0  0  0  0
   -0.6519    0.2938    1.4909 C   0  0  0  0  0  0  0  0  0  0  0  0
   -1.2802    0.2329    0.2337 C   0  0  0  0  0  0  0  0  0  0  0  0
   -0.3541    0.3515   -0.8760 C   0  0  0  0  0  0  0  0  0  0  0  0
   -1.0866    0.6532   -2.0616 C   0  0  0  0  0  0  0  0  0  0  0  0
   -0.5920    1.0511   -3.2851 C   0  0  0  0  0  0  0  0  0  0  0  0
   -1.6558    1.2963   -4.1228 N   0  0  0  0  0  0  0  0  0  0  0  0
   -2.8315    1.1299   -3.4379 C   0  0  0  0  0  0  0  0  0  0  0  0
   -2.5070    0.7577   -2.1527 C   0  0  0  0  0  0  0  0  0  0  0  0
   -3.4149    0.5233   -1.1024 C   0  0  0  0  0  0  0  0  0  0  0  0
   -4.8101    0.6663   -1.2454 C   0  0  0  0  0  0  0  0  0  0  0  0
   -5.6444    0.3941   -0.1771 C   0  0  0  0  0  0  0  0  0  0  0  0
   -5.1216   -0.1190    1.0060 C   0  0  0  0  0  0  0  0  0  0  0  0
   -6.0222   -0.4823    2.0228 C   0  0  0  0  0  0  0  0  0  0  0  0
   -5.5838   -1.1064    3.1843 C   0  0  0  0  0  0  0  0  0  0  0  0
   -4.2406   -1.4036    3.3219 C   0  0  0  0  0  0  0  0  0  0  0  0
   -3.3377   -1.0267    2.3204 C   0  0  0  0  0  0  0  0  0  0  0  0
   -3.7147   -0.3086    1.1545 C   0  0  0  0  0  0  0  0  0  0  0  0
   -2.7818    0.1445    0.1211 C   0  0  0  0  0  0  0  0  0  0  0  0
    3.0003    0.1420    0.8442 C   0  0  0  0  0  0  0  0  0  0  0  0
    5.6191   -0.9435    2.0383 H   0  0  0  0  0  0  0  0  0  0  0  0
    5.7207    0.8478    2.0280 H   0  0  0  0  0  0  0  0  0  0  0  0
    8.1910   -0.1901    1.9736 H   0  0  0  0  0  0  0  0  0  0  0  0
    8.6092   -0.2233   -0.6020 H   0  0  0  0  0  0  0  0  0  0  0  0
    6.3205   -0.0974   -1.8826 H   0  0  0  0  0  0  0  0  0  0  0  0
    4.0851   -0.1283   -2.3480 H   0  0  0  0  0  0  0  0  0  0  0  0
    1.7312   -0.0366   -2.7659 H   0  0  0  0  0  0  0  0  0  0  0  0
    1.1126    0.3405    2.7014 H   0  0  0  0  0  0  0  0  0  0  0  0
   -1.2471    0.4181    2.3929 H   0  0  0  0  0  0  0  0  0  0  0  0
    0.4034    1.2268   -3.6603 H   0  0  0  0  0  0  0  0  0  0  0  0
   -1.5794    1.5997   -5.0852 H   0  0  0  0  0  0  0  0  0  0  0  0
   -3.7759    1.3098   -3.9319 H   0  0  0  0  0  0  0  0  0  0  0  0
   -5.2488    1.0010   -2.1801 H   0  0  0  0  0  0  0  0  0  0  0  0
   -6.7160    0.5305   -0.3031 H   0  0  0  0  0  0  0  0  0  0  0  0
   -7.0893   -0.3036    1.9043 H   0  0  0  0  0  0  0  0  0  0  0  0
   -6.2936   -1.3935    3.9545 H   0  0  0  0  0  0  0  0  0  0  0  0
   -3.8862   -1.9439    4.1958 H   0  0  0  0  0  0  0  0  0  0  0  0
   -2.3148   -1.3700    2.4497 H   0  0  0  0  0  0  0  0  0  0  0  0
    3.3462    0.1610    1.8756 H   0  0  0  0  0  0  0  0  0  0  0  0
  1  2  1  0
  2  3  2  0
  3  4  1  0
  4  5  2  0
  5  6  1  0
  6  7  2  0
  7  8  1  0
  8  9  2  0
  9 10  1  0
 10 11  1  0
 11 12  2  0
 12 13  1  0
 13 14  2  0
 14 15  1  0
 15 16  2  0
 16 17  1  0
 17 18  1  0
 18 19  2  0
 19 20  1  0
 20 21  2  0
 21 22  1  0
 22 23  2  0
 23 24  1  0
 24 25  2  0
 25 26  1  0
 26 27  2  0
 27 28  1  0
 28 29  2  0
 10 30  2  0
  5  1  1  0
 30  6  1  0
 14  9  1  0
 19 15  1  0
 29 20  1  0
 29 13  1  0
 28 23  1  0
  1 31  1  0
  1 32  1  0
  2 33  1  0
  3 34  1  0
  4 35  1  0
  7 36  1  0
  8 37  1  0
 11 38  1  0
 12 39  1  0
 16 40  1  0
 17 41  1  0
 18 42  1  0
 21 43  1  0
 22 44  1  0
 24 45  1  0
 25 46  1  0
 26 47  1  0
 27 48  1  0
 30 49  1  0
M  END
