
     RDKit          3D

 40 45  0  0  0  0  0  0  0  0999 V2000
    5.1054    1.3293   -0.0564 C   0  0  0  0  0  0  0  0  0  0  0  0
    6.5370    0.8799   -0.0291 C   0  0  0  0  0  0  0  0  0  0  0  0
    6.5886   -0.4561    0.0415 C   0  0  0  0  0  0  0  0  0  0  0  0
    5.2496   -0.9864    0.0660 C   0  0  0  0  0  0  0  0  0  0  0  0
    4.3550    0.0180    0.0107 C   0  0  0  0  0  0  0  0  0  0  0  0
    2.8900   -0.0685    0.0115 C   0  0  0  0  0  0  0  0  0  0  0  0
    2.0856    1.0562   -0.0476 C   0  0  0  0  0  0  0  0  0  0  0  0
    0.7286    1.0440   -0.0506 N   0  0  0  0  0  0  0  0  0  0  0  0
    0.0530   -0.1282    0.0070 C   0  0  0  0  0  0  0  0  0  0  0  0
    0.7983   -1.3286    0.0697 C   0  0  0  0  0  0  0  0  0  0  0  0
    0.1620   -2.5705    0.1308 C   0  0  0  0  0  0  0  0  0  0  0  0
   -1.2232   -2.6551    0.1313 C   0  0  0  0  0  0  0  0  0  0  0  0
   -2.0051   -1.4965    0.0706 C   0  0  0  0  0  0  0  0  0  0  0  0
   -3.4855   -1.5648    0.0698 C   0  0  0  0  0  0  0  0  0  0  0  0
   -4.3805   -3.0248    0.1409 S   0  0  0  0  0  0  0  0  0  0  0  0
   -5.8758   -2.2010    0.0950 C   0  0  0  0  0  0  0  0  0  0  0  0
   -5.7103   -0.8361    0.0266 C   0  0  0  0  0  0  0  0  0  0  0  0
   -4.3327   -0.4724    0.0123 C   0  0  0  0  0  0  0  0  0  0  0  0
   -3.7688    0.8389   -0.0523 C   0  0  0  0  0  0  0  0  0  0  0  0
   -4.4645    1.9928   -0.1124 C   0  0  0  0  0  0  0  0  0  0  0  0
   -3.3358    3.4650   -0.1834 Si  0  0  0  0  0  4  0  0  0  0  0  0
   -1.9002    2.2847   -0.1198 C   0  0  0  0  0  0  0  0  0  0  0  0
   -2.2819    0.9889   -0.0557 C   0  0  0  0  0  0  0  0  0  0  0  0
   -1.3674   -0.2152    0.0076 C   0  0  0  0  0  0  0  0  0  0  0  0
    2.2048   -1.2797    0.0710 C   0  0  0  0  0  0  0  0  0  0  0  0
    4.8877    1.9652    0.8078 H   0  0  0  0  0  0  0  0  0  0  0  0
    4.8922    1.8709   -0.9837 H   0  0  0  0  0  0  0  0  0  0  0  0
    7.3886    1.5425   -0.0619 H   0  0  0  0  0  0  0  0  0  0  0  0
    7.4823   -1.0608    0.0757 H   0  0  0  0  0  0  0  0  0  0  0  0
    5.0485   -2.0451    0.1214 H   0  0  0  0  0  0  0  0  0  0  0  0
    2.5038    2.0575   -0.0972 H   0  0  0  0  0  0  0  0  0  0  0  0
    0.7403   -3.4912    0.1789 H   0  0  0  0  0  0  0  0  0  0  0  0
   -1.6724   -3.6434    0.1800 H   0  0  0  0  0  0  0  0  0  0  0  0
   -6.8040   -2.7549    0.1203 H   0  0  0  0  0  0  0  0  0  0  0  0
   -6.5415   -0.1438   -0.0107 H   0  0  0  0  0  0  0  0  0  0  0  0
   -5.5352    2.1132   -0.1215 H   0  0  0  0  0  0  0  0  0  0  0  0
   -3.4343    4.1881   -1.4744 H   0  0  0  0  0  0  0  0  0  0  0  0
   -3.4415    4.3142    1.0278 H   0  0  0  0  0  0  0  0  0  0  0  0
   -0.9018    2.6866   -0.1372 H   0  0  0  0  0  0  0  0  0  0  0  0
    2.7611   -2.2126    0.1195 H   0  0  0  0  0  0  0  0  0  0  0  0
  1  2  1  0
  2  3  2  0
  3  4  1  0
  4  5  2  0
  5  6  1  0
  6  7  2  0
  7  8  1  0
  8  9  2  0
  9 10  1  0
 10 11  1  0
 11 12  2  0
 12 13  1  0
 13 14  1  0
 14 15  1  0
 15 16  1  0
 16 17  2  0
 17 18  1  0
 18 19  1  0
 19 20  2  0
 20 21  1  0
 21 22  1  0
 22 23  2  0
 23 24  1  0
 10 25  2  0
  5  1  1  0
 25  6  1  0
 24  9  1  0
 24 13  2  0
 18 14  2  0
 23 19  1  0
  1 26  1  0
  1 27  1  0
  2 28  1  0
  3 29  1  0
  4 30  1  0
  7 31  1  0
 11 32  1  0
 12 33  1  0
 16 34  1  0
 17 35  1  0
 20 36  1  0
 21 37  1  0
 21 38  1  0
 22 39  1  0
 25 40  1  0
M  END
