
     RDKit          3D

 35 40  0  0  0  0  0  0  0  0999 V2000
   -5.0235    1.3935   -1.0157 C   0  0  0  0  0  0  0  0  0  0  0  0
   -5.8981    0.7284    0.0827 C   0  0  0  0  0  0  0  0  0  0  0  0
   -5.1670   -0.0071    0.9579 C   0  0  0  0  0  0  0  0  0  0  0  0
   -3.8497    0.1248    0.5118 C   0  0  0  0  0  0  0  0  0  0  0  0
   -2.6578   -0.3480    0.9288 N   0  0  0  0  0  0  0  0  0  0  0  0
   -1.6861    0.1383    0.0600 C   0  0  0  0  0  0  0  0  0  0  0  0
   -2.3404    0.9299   -0.9091 C   0  0  0  0  0  0  0  0  0  0  0  0
   -1.7043    1.5644   -1.9194 N   0  0  0  0  0  0  0  0  0  0  0  0
   -0.3625    1.3919   -1.9494 C   0  0  0  0  0  0  0  0  0  0  0  0
    0.4104    0.6428   -1.0609 C   0  0  0  0  0  0  0  0  0  0  0  0
    1.8467    0.5434   -1.2095 C   0  0  0  0  0  0  0  0  0  0  0  0
    2.7140   -0.1941   -0.3538 C   0  0  0  0  0  0  0  0  0  0  0  0
    4.1645   -0.3117   -0.4867 C   0  0  0  0  0  0  0  0  0  0  0  0
    4.8945   -1.2973    0.0010 N   0  0  0  0  0  0  0  0  0  0  0  0
    6.2289   -1.1059   -0.2946 C   0  0  0  0  0  0  0  0  0  0  0  0
    6.5197    0.0349   -1.0057 C   0  0  0  0  0  0  0  0  0  0  0  0
    5.0773    0.8996   -1.3174 S   0  0  0  0  0  0  0  0  0  0  0  0
    1.9791   -0.8238    0.6580 C   0  0  0  0  0  0  0  0  0  0  0  0
    2.4393   -1.6170    1.6792 C   0  0  0  0  0  0  0  0  0  0  0  0
    1.3962   -2.0250    2.4588 O   0  0  0  0  0  0  0  0  0  0  0  0
    0.2550   -1.4884    1.9339 C   0  0  0  0  0  0  0  0  0  0  0  0
    0.5550   -0.7378    0.8259 C   0  0  0  0  0  0  0  0  0  0  0  0
   -0.2990   -0.0114   -0.0100 C   0  0  0  0  0  0  0  0  0  0  0  0
   -3.6973    0.9016   -0.5975 C   0  0  0  0  0  0  0  0  0  0  0  0
   -5.3097    1.0315   -2.0067 H   0  0  0  0  0  0  0  0  0  0  0  0
   -5.1009    2.4826   -0.9618 H   0  0  0  0  0  0  0  0  0  0  0  0
   -6.9704    0.8531    0.1234 H   0  0  0  0  0  0  0  0  0  0  0  0
   -5.5247   -0.5679    1.8077 H   0  0  0  0  0  0  0  0  0  0  0  0
   -2.4991   -0.9462    1.7253 H   0  0  0  0  0  0  0  0  0  0  0  0
    0.1128    1.9173   -2.7764 H   0  0  0  0  0  0  0  0  0  0  0  0
    2.2898    1.0717   -2.0562 H   0  0  0  0  0  0  0  0  0  0  0  0
    6.9553   -1.8377    0.0375 H   0  0  0  0  0  0  0  0  0  0  0  0
    7.4817    0.3904   -1.3452 H   0  0  0  0  0  0  0  0  0  0  0  0
    3.4126   -1.9752    1.9864 H   0  0  0  0  0  0  0  0  0  0  0  0
   -0.6424   -1.7456    2.4736 H   0  0  0  0  0  0  0  0  0  0  0  0
  1  2  1  0
  2  3  2  0
  3  4  1  0
  4  5  1  0
  5  6  1  0
  6  7  2  0
  7  8  1  0
  8  9  2  0
  9 10  1  0
 10 11  1  0
 11 12  2  0
 12 13  1  0
 13 14  2  0
 14 15  1  0
 15 16  2  0
 16 17  1  0
 12 18  1  0
 18 19  2  0
 19 20  1  0
 20 21  1  0
 21 22  2  0
 22 23  1  0
  7 24  1  0
 24  1  1  0
 24  4  2  0
 23  6  1  0
 23 10  2  0
 17 13  1  0
 22 18  1  0
  1 25  1  0
  1 26  1  0
  2 27  1  0
  3 28  1  0
  5 29  1  0
  9 30  1  0
 11 31  1  0
 15 32  1  0
 16 33  1  0
 19 34  1  0
 21 35  1  0
M  END
