
     RDKit          3D

 39 45  0  0  0  0  0  0  0  0999 V2000
    5.6879   -0.0508    0.4787 C   0  0  0  0  0  0  0  0  0  0  0  0
    6.3408   -0.9010   -0.6438 C   0  0  0  0  0  0  0  0  0  0  0  0
    5.4268   -1.5264   -1.4281 C   0  0  0  0  0  0  0  0  0  0  0  0
    4.1885   -1.1480   -0.9005 C   0  0  0  0  0  0  0  0  0  0  0  0
    2.9004   -1.4319   -1.2287 N   0  0  0  0  0  0  0  0  0  0  0  0
    2.1190   -0.7499   -0.3208 C   0  0  0  0  0  0  0  0  0  0  0  0
    0.5774   -0.6642   -0.1627 C   0  0  0  0  0  0  0  0  0  0  0  0
   -0.6174   -1.4077   -1.0932 S   0  0  0  0  0  0  0  0  0  0  0  0
   -1.8782   -0.7000   -0.1366 C   0  0  0  0  0  0  0  0  0  0  0  0
   -1.3745    0.0971    0.8839 C   0  0  0  0  0  0  0  0  0  0  0  0
    0.0264    0.0942    0.8393 C   0  0  0  0  0  0  0  0  0  0  0  0
    0.9495    0.7714    1.6928 C   0  0  0  0  0  0  0  0  0  0  0  0
    0.6936    1.5844    2.7592 C   0  0  0  0  0  0  0  0  0  0  0  0
    1.8968    2.0145    3.2794 O   0  0  0  0  0  0  0  0  0  0  0  0
    2.9060    1.4565    2.5226 C   0  0  0  0  0  0  0  0  0  0  0  0
    2.3355    0.6933    1.5479 C   0  0  0  0  0  0  0  0  0  0  0  0
    2.9616   -0.0681    0.5387 C   0  0  0  0  0  0  0  0  0  0  0  0
    4.2661   -0.3098    0.1848 C   0  0  0  0  0  0  0  0  0  0  0  0
   -3.2647   -0.9328   -0.4376 C   0  0  0  0  0  0  0  0  0  0  0  0
   -3.9245   -2.5306   -0.5473 S   0  0  0  0  0  0  0  0  0  0  0  0
   -5.5204   -1.9568   -0.8773 C   0  0  0  0  0  0  0  0  0  0  0  0
   -5.5444   -0.5891   -0.9030 C   0  0  0  0  0  0  0  0  0  0  0  0
   -6.6242    0.3192   -1.1405 C   0  0  0  0  0  0  0  0  0  0  0  0
   -6.2842    1.6262   -1.1026 C   0  0  0  0  0  0  0  0  0  0  0  0
   -4.4175    1.8496   -0.7376 Si  0  0  0  0  0  4  0  0  0  0  0  0
   -4.2636   -0.0273   -0.6515 C   0  0  0  0  0  0  0  0  0  0  0  0
    5.9515    1.0040    0.3653 H   0  0  0  0  0  0  0  0  0  0  0  0
    5.9841   -0.4213    1.4636 H   0  0  0  0  0  0  0  0  0  0  0  0
    7.4116   -0.9726   -0.7679 H   0  0  0  0  0  0  0  0  0  0  0  0
    5.6134   -2.1729   -2.2718 H   0  0  0  0  0  0  0  0  0  0  0  0
    2.5675   -2.0214   -1.9802 H   0  0  0  0  0  0  0  0  0  0  0  0
   -1.9924    0.6221    1.6007 H   0  0  0  0  0  0  0  0  0  0  0  0
   -0.1886    1.9497    3.2642 H   0  0  0  0  0  0  0  0  0  0  0  0
    3.9123    1.7102    2.8216 H   0  0  0  0  0  0  0  0  0  0  0  0
   -6.3292   -2.6569   -1.0318 H   0  0  0  0  0  0  0  0  0  0  0  0
   -7.6332   -0.0259   -1.3355 H   0  0  0  0  0  0  0  0  0  0  0  0
   -6.9251    2.4801   -1.2519 H   0  0  0  0  0  0  0  0  0  0  0  0
   -3.7264    2.4684   -1.8954 H   0  0  0  0  0  0  0  0  0  0  0  0
   -4.2084    2.5244    0.5684 H   0  0  0  0  0  0  0  0  0  0  0  0
  1  2  1  0
  2  3  2  0
  3  4  1  0
  4  5  1  0
  5  6  1  0
  6  7  1  0
  7  8  1  0
  8  9  1  0
  9 10  2  0
 10 11  1  0
 11 12  1  0
 12 13  2  0
 13 14  1  0
 14 15  1  0
 15 16  2  0
 16 17  1  0
 17 18  1  0
  9 19  1  0
 19 20  1  0
 20 21  1  0
 21 22  2  0
 22 23  1  0
 23 24  2  0
 24 25  1  0
 25 26  1  0
 18  1  1  0
 26 19  2  0
 18  4  2  0
 26 22  1  0
 17  6  2  0
 11  7  2  0
 16 12  1  0
  1 27  1  0
  1 28  1  0
  2 29  1  0
  3 30  1  0
  5 31  1  0
 10 32  1  0
 13 33  1  0
 15 34  1  0
 21 35  1  0
 23 36  1  0
 24 37  1  0
 25 38  1  0
 25 39  1  0
M  END
