
     RDKit          3D

 30 33  0  0  0  0  0  0  0  0999 V2000
    4.2473    1.3760    0.6065 C   0  0  0  0  0  0  0  0  0  0  0  0
    5.1182    0.5512   -0.3280 C   0  0  0  0  0  0  0  0  0  0  0  0
    4.3712   -0.3331   -1.0179 C   0  0  0  0  0  0  0  0  0  0  0  0
    3.0169   -0.1666   -0.6109 C   0  0  0  0  0  0  0  0  0  0  0  0
    2.9167    0.7955    0.3105 C   0  0  0  0  0  0  0  0  0  0  0  0
    1.5621    0.9645    0.7159 C   0  0  0  0  0  0  0  0  0  0  0  0
    0.7986    0.0843    0.0294 C   0  0  0  0  0  0  0  0  0  0  0  0
    1.6858   -0.7487   -0.9052 C   0  0  0  0  0  0  0  0  0  0  0  0
   -0.6299   -0.0583    0.1324 C   0  0  0  0  0  0  0  0  0  0  0  0
   -1.5224    0.9217    0.3942 C   0  0  0  0  0  0  0  0  0  0  0  0
   -2.9254    0.4812    0.4164 C   0  0  0  0  0  0  0  0  0  0  0  0
   -4.0285    1.2783    0.6616 C   0  0  0  0  0  0  0  0  0  0  0  0
   -5.2978    0.8033    0.6646 N   0  0  0  0  0  0  0  0  0  0  0  0
   -5.4624   -0.5200    0.4115 C   0  0  0  0  0  0  0  0  0  0  0  0
   -4.4251   -1.4057    0.1528 C   0  0  0  0  0  0  0  0  0  0  0  0
   -3.1381   -0.8871    0.1571 C   0  0  0  0  0  0  0  0  0  0  0  0
   -1.5008   -1.7344   -0.1400 Si  0  0  0  0  0  4  0  0  0  0  0  0
    4.5395    1.2228    1.6492 H   0  0  0  0  0  0  0  0  0  0  0  0
    4.2981    2.4383    0.3515 H   0  0  0  0  0  0  0  0  0  0  0  0
    6.1879    0.6702   -0.4155 H   0  0  0  0  0  0  0  0  0  0  0  0
    4.7226   -1.0432   -1.7493 H   0  0  0  0  0  0  0  0  0  0  0  0
    1.2289    1.6831    1.4479 H   0  0  0  0  0  0  0  0  0  0  0  0
    1.4052   -0.6013   -1.9528 H   0  0  0  0  0  0  0  0  0  0  0  0
    1.6604   -1.8125   -0.6500 H   0  0  0  0  0  0  0  0  0  0  0  0
   -1.2675    1.9592    0.5675 H   0  0  0  0  0  0  0  0  0  0  0  0
   -3.9321    2.3396    0.8668 H   0  0  0  0  0  0  0  0  0  0  0  0
   -6.4943   -0.8612    0.4232 H   0  0  0  0  0  0  0  0  0  0  0  0
   -4.6297   -2.4521   -0.0415 H   0  0  0  0  0  0  0  0  0  0  0  0
   -1.3417   -2.2196   -1.5353 H   0  0  0  0  0  0  0  0  0  0  0  0
   -1.1639   -2.7254    0.9135 H   0  0  0  0  0  0  0  0  0  0  0  0
  1  2  1  0
  2  3  2  0
  3  4  1  0
  4  5  2  0
  5  6  1  0
  6  7  2  0
  7  8  1  0
  7  9  1  0
  9 10  2  0
 10 11  1  0
 11 12  2  0
 12 13  1  0
 13 14  2  0
 14 15  1  0
 15 16  2  0
 16 17  1  0
  5  1  1  0
 17  9  1  0
  8  4  1  0
 16 11  1  0
  1 18  1  0
  1 19  1  0
  2 20  1  0
  3 21  1  0
  6 22  1  0
  8 23  1  0
  8 24  1  0
 10 25  1  0
 12 26  1  0
 14 27  1  0
 15 28  1  0
 17 29  1  0
 17 30  1  0
M  END
