
     RDKit          3D

 39 45  0  0  0  0  0  0  0  0999 V2000
   -3.3940   -1.2532    2.6190 C   0  0  0  0  0  0  0  0  0  0  0  0
   -4.8717   -1.3328    2.2860 C   0  0  0  0  0  0  0  0  0  0  0  0
   -5.1514   -0.9903    1.0162 C   0  0  0  0  0  0  0  0  0  0  0  0
   -3.8906   -0.6598    0.4020 C   0  0  0  0  0  0  0  0  0  0  0  0
   -2.8206   -0.7958    1.3000 C   0  0  0  0  0  0  0  0  0  0  0  0
   -1.5010   -0.4999    0.9037 C   0  0  0  0  0  0  0  0  0  0  0  0
   -0.3245   -0.4986    1.6238 N   0  0  0  0  0  0  0  0  0  0  0  0
    0.7492   -0.1365    0.8291 C   0  0  0  0  0  0  0  0  0  0  0  0
    2.1093    0.0296    1.1804 C   0  0  0  0  0  0  0  0  0  0  0  0
    3.0678    0.3671    0.2035 C   0  0  0  0  0  0  0  0  0  0  0  0
    4.4677    0.5855    0.5209 C   0  0  0  0  0  0  0  0  0  0  0  0
    5.2398    1.7259    0.3970 C   0  0  0  0  0  0  0  0  0  0  0  0
    6.5621    1.6068    0.7818 N   0  0  0  0  0  0  0  0  0  0  0  0
    6.7777    0.3794    1.1997 C   0  0  0  0  0  0  0  0  0  0  0  0
    5.4330   -0.6836    1.1595 S   0  0  0  0  0  0  0  0  0  0  0  0
    2.5510    0.4469   -1.1009 C   0  0  0  0  0  0  0  0  0  0  0  0
    3.3343    0.6610   -2.2183 C   0  0  0  0  0  0  0  0  0  0  0  0
    2.4281    0.5940   -3.6814 S   0  0  0  0  0  0  0  0  0  0  0  0
    0.9664    0.2548   -2.8401 C   0  0  0  0  0  0  0  0  0  0  0  0
    1.1894    0.2741   -1.4955 C   0  0  0  0  0  0  0  0  0  0  0  0
    0.2313    0.0326   -0.4534 C   0  0  0  0  0  0  0  0  0  0  0  0
   -1.1504   -0.0967   -0.3919 C   0  0  0  0  0  0  0  0  0  0  0  0
   -2.2448    0.1203   -1.3054 C   0  0  0  0  0  0  0  0  0  0  0  0
   -2.3465    0.6665   -2.5476 C   0  0  0  0  0  0  0  0  0  0  0  0
   -3.6686    0.6458   -2.9240 O   0  0  0  0  0  0  0  0  0  0  0  0
   -4.3884    0.1215   -1.8817 C   0  0  0  0  0  0  0  0  0  0  0  0
   -3.5454   -0.1895   -0.8455 C   0  0  0  0  0  0  0  0  0  0  0  0
   -3.0004   -2.2338    2.9005 H   0  0  0  0  0  0  0  0  0  0  0  0
   -3.2075   -0.5175    3.4062 H   0  0  0  0  0  0  0  0  0  0  0  0
   -5.6152   -1.6342    3.0111 H   0  0  0  0  0  0  0  0  0  0  0  0
   -6.1154   -0.9601    0.5369 H   0  0  0  0  0  0  0  0  0  0  0  0
   -0.2572   -0.7166    2.6072 H   0  0  0  0  0  0  0  0  0  0  0  0
    2.4163   -0.0941    2.2172 H   0  0  0  0  0  0  0  0  0  0  0  0
    4.8841    2.6804    0.0266 H   0  0  0  0  0  0  0  0  0  0  0  0
    7.7470    0.0515    1.5520 H   0  0  0  0  0  0  0  0  0  0  0  0
    4.4012    0.8249   -2.2846 H   0  0  0  0  0  0  0  0  0  0  0  0
    0.0819    0.0276   -3.4077 H   0  0  0  0  0  0  0  0  0  0  0  0
   -1.6873    1.1260   -3.2655 H   0  0  0  0  0  0  0  0  0  0  0  0
   -5.4566    0.0709   -2.0369 H   0  0  0  0  0  0  0  0  0  0  0  0
  1  2  1  0
  2  3  2  0
  3  4  1  0
  4  5  2  0
  5  6  1  0
  6  7  1  0
  7  8  1  0
  8  9  1  0
  9 10  2  0
 10 11  1  0
 11 12  2  0
 12 13  1  0
 13 14  2  0
 14 15  1  0
 10 16  1  0
 16 17  2  0
 17 18  1  0
 18 19  1  0
 19 20  2  0
 20 21  1  0
 21 22  1  0
 22 23  1  0
 23 24  2  0
 24 25  1  0
 25 26  1  0
 26 27  2  0
  5  1  1  0
 22  6  2  0
 27 23  1  0
 27  4  1  0
 21  8  2  0
 15 11  1  0
 20 16  1  0
  1 28  1  0
  1 29  1  0
  2 30  1  0
  3 31  1  0
  7 32  1  0
  9 33  1  0
 12 34  1  0
 14 35  1  0
 17 36  1  0
 19 37  1  0
 24 38  1  0
 26 39  1  0
M  END
