
     RDKit          3D

 46 53  0  0  0  0  0  0  0  0999 V2000
   -4.6105    2.5039   -0.3879 C   0  0  0  0  0  0  0  0  0  0  0  0
   -6.0298    2.1439    0.0074 C   0  0  0  0  0  0  0  0  0  0  0  0
   -6.1460    0.8937    0.4882 C   0  0  0  0  0  0  0  0  0  0  0  0
   -4.8233    0.3211    0.4509 C   0  0  0  0  0  0  0  0  0  0  0  0
   -3.8794    1.2270   -0.0554 C   0  0  0  0  0  0  0  0  0  0  0  0
   -2.5220    0.8687   -0.1643 C   0  0  0  0  0  0  0  0  0  0  0  0
   -1.4321    1.5997   -0.5910 N   0  0  0  0  0  0  0  0  0  0  0  0
   -0.2735    0.8449   -0.5493 C   0  0  0  0  0  0  0  0  0  0  0  0
    1.0568    1.2116   -0.8889 C   0  0  0  0  0  0  0  0  0  0  0  0
    2.1068    0.2732   -0.8149 C   0  0  0  0  0  0  0  0  0  0  0  0
    3.4906    0.5782   -1.1294 C   0  0  0  0  0  0  0  0  0  0  0  0
    3.9150    1.0110   -2.7540 S   0  0  0  0  0  0  0  0  0  0  0  0
    5.5891    1.1923   -2.3750 C   0  0  0  0  0  0  0  0  0  0  0  0
    5.7831    0.9348   -1.0535 C   0  0  0  0  0  0  0  0  0  0  0  0
    7.2500    0.9169    0.1260 Si  0  0  0  0  0  4  0  0  0  0  0  0
    6.0417    0.4282    1.5259 C   0  0  0  0  0  0  0  0  0  0  0  0
    4.7740    0.3227    1.0697 C   0  0  0  0  0  0  0  0  0  0  0  0
    4.6096    0.5895   -0.3302 C   0  0  0  0  0  0  0  0  0  0  0  0
    1.6724   -0.9937   -0.4235 C   0  0  0  0  0  0  0  0  0  0  0  0
    2.4342   -2.1371   -0.3369 C   0  0  0  0  0  0  0  0  0  0  0  0
    1.6529   -3.2043    0.0165 O   0  0  0  0  0  0  0  0  0  0  0  0
    0.3675   -2.7440    0.1546 C   0  0  0  0  0  0  0  0  0  0  0  0
    0.3664   -1.4047   -0.0781 C   0  0  0  0  0  0  0  0  0  0  0  0
   -0.6663   -0.4188   -0.1039 C   0  0  0  0  0  0  0  0  0  0  0  0
   -2.0214   -0.3918    0.1897 C   0  0  0  0  0  0  0  0  0  0  0  0
   -2.9670   -1.3204    0.7625 C   0  0  0  0  0  0  0  0  0  0  0  0
   -2.8343   -2.5513    1.3323 C   0  0  0  0  0  0  0  0  0  0  0  0
   -4.1094   -2.9303    1.7148 N   0  0  0  0  0  0  0  0  0  0  0  0
   -5.0163   -1.9289    1.4279 C   0  0  0  0  0  0  0  0  0  0  0  0
   -4.3162   -0.8994    0.8457 C   0  0  0  0  0  0  0  0  0  0  0  0
   -4.2360    3.3396    0.2099 H   0  0  0  0  0  0  0  0  0  0  0  0
   -4.5446    2.7289   -1.4560 H   0  0  0  0  0  0  0  0  0  0  0  0
   -6.8548    2.8353   -0.0919 H   0  0  0  0  0  0  0  0  0  0  0  0
   -7.0347    0.3969    0.8382 H   0  0  0  0  0  0  0  0  0  0  0  0
   -1.4746    2.5606   -0.8964 H   0  0  0  0  0  0  0  0  0  0  0  0
    1.2695    2.2296   -1.2093 H   0  0  0  0  0  0  0  0  0  0  0  0
    6.3001    1.4739   -3.1398 H   0  0  0  0  0  0  0  0  0  0  0  0
    8.2252   -0.1699   -0.1387 H   0  0  0  0  0  0  0  0  0  0  0  0
    7.8411    2.2551    0.3758 H   0  0  0  0  0  0  0  0  0  0  0  0
    6.3932    0.2743    2.5333 H   0  0  0  0  0  0  0  0  0  0  0  0
    3.9366    0.0592    1.7065 H   0  0  0  0  0  0  0  0  0  0  0  0
    3.4772   -2.3677   -0.5041 H   0  0  0  0  0  0  0  0  0  0  0  0
   -0.3575   -3.5068    0.3756 H   0  0  0  0  0  0  0  0  0  0  0  0
   -2.0041   -3.1986    1.5519 H   0  0  0  0  0  0  0  0  0  0  0  0
   -4.3386   -3.8031    2.1720 H   0  0  0  0  0  0  0  0  0  0  0  0
   -6.0602   -2.0441    1.6847 H   0  0  0  0  0  0  0  0  0  0  0  0
  1  2  1  0
  2  3  2  0
  3  4  1  0
  4  5  2  0
  5  6  1  0
  6  7  1  0
  7  8  1  0
  8  9  1  0
  9 10  2  0
 10 11  1  0
 11 12  1  0
 12 13  1  0
 13 14  2  0
 14 15  1  0
 15 16  1  0
 16 17  2  0
 17 18  1  0
 10 19  1  0
 19 20  2  0
 20 21  1  0
 21 22  1  0
 22 23  2  0
 23 24  1  0
 24 25  1  0
 25 26  1  0
 26 27  2  0
 27 28  1  0
 28 29  1  0
 29 30  2  0
  5  1  1  0
 25  6  2  0
 30 26  1  0
 30  4  1  0
 24  8  2  0
 18 11  2  0
 23 19  1  0
 18 14  1  0
  1 31  1  0
  1 32  1  0
  2 33  1  0
  3 34  1  0
  7 35  1  0
  9 36  1  0
 13 37  1  0
 15 38  1  0
 15 39  1  0
 16 40  1  0
 17 41  1  0
 20 42  1  0
 22 43  1  0
 27 44  1  0
 28 45  1  0
 29 46  1  0
M  END
