
     RDKit          3D

 48 54  0  0  0  0  0  0  0  0999 V2000
   -3.4355   -0.3767   -3.2663 C   0  0  0  0  0  0  0  0  0  0  0  0
   -4.5362   -1.3897   -3.4032 C   0  0  0  0  0  0  0  0  0  0  0  0
   -4.6773   -2.0522   -2.2494 C   0  0  0  0  0  0  0  0  0  0  0  0
   -3.6969   -1.5766   -1.3017 C   0  0  0  0  0  0  0  0  0  0  0  0
   -2.9447   -0.5989   -1.8581 C   0  0  0  0  0  0  0  0  0  0  0  0
   -1.7572    0.0238   -1.2130 C   0  0  0  0  0  0  0  0  0  0  0  0
   -1.2982   -0.5206   -0.0291 C   0  0  0  0  0  0  0  0  0  0  0  0
    0.1090   -0.2149    0.4493 C   0  0  0  0  0  0  0  0  0  0  0  0
    0.7821   -1.0855    1.3238 C   0  0  0  0  0  0  0  0  0  0  0  0
    2.0720   -0.8141    1.7973 C   0  0  0  0  0  0  0  0  0  0  0  0
    2.7773    0.3192    1.3824 C   0  0  0  0  0  0  0  0  0  0  0  0
    2.1403    1.1525    0.4491 C   0  0  0  0  0  0  0  0  0  0  0  0
    0.8421    0.8837   -0.0397 C   0  0  0  0  0  0  0  0  0  0  0  0
    0.2451    1.6590   -1.1385 C   0  0  0  0  0  0  0  0  0  0  0  0
    0.7658    2.7868   -1.6685 C   0  0  0  0  0  0  0  0  0  0  0  0
   -0.2659    3.4241   -3.0724 Si  0  0  0  0  0  4  0  0  0  0  0  0
   -1.4209    1.9911   -2.7712 C   0  0  0  0  0  0  0  0  0  0  0  0
   -1.0125    1.1830   -1.7671 C   0  0  0  0  0  0  0  0  0  0  0  0
    4.1374    0.5904    1.8924 C   0  0  0  0  0  0  0  0  0  0  0  0
    5.1311    1.1995    1.1243 C   0  0  0  0  0  0  0  0  0  0  0  0
    6.3896    1.4199    1.6821 C   0  0  0  0  0  0  0  0  0  0  0  0
    6.6321    1.0274    2.9907 C   0  0  0  0  0  0  0  0  0  0  0  0
    5.6025    0.4227    3.6876 C   0  0  0  0  0  0  0  0  0  0  0  0
    4.3752    0.1947    3.1703 N   0  0  0  0  0  0  0  0  0  0  0  0
   -2.2334   -1.4086    0.7227 C   0  0  0  0  0  0  0  0  0  0  0  0
   -2.1938   -1.7016    2.0421 C   0  0  0  0  0  0  0  0  0  0  0  0
   -3.5656   -2.8645    2.5493 Si  0  0  0  0  0  4  0  0  0  0  0  0
   -4.2000   -2.7795    0.8028 C   0  0  0  0  0  0  0  0  0  0  0  0
   -3.4175   -1.9848    0.0466 C   0  0  0  0  0  0  0  0  0  0  0  0
   -2.6506   -0.5566   -4.0070 H   0  0  0  0  0  0  0  0  0  0  0  0
   -3.8735    0.6159   -3.3974 H   0  0  0  0  0  0  0  0  0  0  0  0
   -5.1255   -1.5406   -4.2945 H   0  0  0  0  0  0  0  0  0  0  0  0
   -5.3899   -2.8365   -2.0480 H   0  0  0  0  0  0  0  0  0  0  0  0
    0.3305   -2.0202    1.6427 H   0  0  0  0  0  0  0  0  0  0  0  0
    2.5337   -1.5144    2.4925 H   0  0  0  0  0  0  0  0  0  0  0  0
    2.6715    2.0274    0.0873 H   0  0  0  0  0  0  0  0  0  0  0  0
    1.6600    3.3125   -1.3800 H   0  0  0  0  0  0  0  0  0  0  0  0
   -0.8938    4.7339   -2.7763 H   0  0  0  0  0  0  0  0  0  0  0  0
    0.4271    3.3285   -4.3797 H   0  0  0  0  0  0  0  0  0  0  0  0
   -2.3143    1.9483   -3.3614 H   0  0  0  0  0  0  0  0  0  0  0  0
    4.9479    1.4877    0.0947 H   0  0  0  0  0  0  0  0  0  0  0  0
    7.1735    1.8903    1.0954 H   0  0  0  0  0  0  0  0  0  0  0  0
    7.5991    1.1841    3.4548 H   0  0  0  0  0  0  0  0  0  0  0  0
    5.7386    0.0931    4.7137 H   0  0  0  0  0  0  0  0  0  0  0  0
   -1.5007   -1.3392    2.7833 H   0  0  0  0  0  0  0  0  0  0  0  0
   -4.4991   -2.2532    3.5257 H   0  0  0  0  0  0  0  0  0  0  0  0
   -3.0597   -4.2118    2.9068 H   0  0  0  0  0  0  0  0  0  0  0  0
   -5.1208   -3.2586    0.5128 H   0  0  0  0  0  0  0  0  0  0  0  0
  1  2  1  0
  2  3  2  0
  3  4  1  0
  4  5  2  0
  5  6  1  0
  6  7  2  0
  7  8  1  0
  8  9  2  0
  9 10  1  0
 10 11  2  0
 11 12  1  0
 12 13  2  0
 13 14  1  0
 14 15  2  0
 15 16  1  0
 16 17  1  0
 17 18  2  0
 11 19  1  0
 19 20  2  0
 20 21  1  0
 21 22  2  0
 22 23  1  0
 23 24  2  0
  7 25  1  0
 25 26  2  0
 26 27  1  0
 27 28  1  0
 28 29  2  0
  5  1  1  0
 18  6  1  0
 24 19  1  0
 29 25  1  0
 29  4  1  0
 13  8  1  0
 18 14  1  0
  1 30  1  0
  1 31  1  0
  2 32  1  0
  3 33  1  0
  9 34  1  0
 10 35  1  0
 12 36  1  0
 15 37  1  0
 16 38  1  0
 16 39  1  0
 17 40  1  0
 20 41  1  0
 21 42  1  0
 22 43  1  0
 23 44  1  0
 26 45  1  0
 27 46  1  0
 27 47  1  0
 28 48  1  0
M  END
