
     RDKit          3D

 45 52  0  0  0  0  0  0  0  0999 V2000
   -4.8531    0.3434   -0.5389 C   0  0  0  0  0  0  0  0  0  0  0  0
   -5.8205   -0.7409   -0.1003 C   0  0  0  0  0  0  0  0  0  0  0  0
   -5.2084   -1.8118    0.4300 C   0  0  0  0  0  0  0  0  0  0  0  0
   -3.7996   -1.5220    0.3840 C   0  0  0  0  0  0  0  0  0  0  0  0
   -3.5228   -0.2613   -0.1785 C   0  0  0  0  0  0  0  0  0  0  0  0
   -2.1891    0.2670   -0.3387 C   0  0  0  0  0  0  0  0  0  0  0  0
   -1.8146    1.5224   -0.8928 C   0  0  0  0  0  0  0  0  0  0  0  0
   -2.6404    2.5071   -1.3969 C   0  0  0  0  0  0  0  0  0  0  0  0
   -1.8529    3.5629   -1.8335 N   0  0  0  0  0  0  0  0  0  0  0  0
   -0.5218    3.2842   -1.6227 C   0  0  0  0  0  0  0  0  0  0  0  0
   -0.5199    2.0472   -1.0537 C   0  0  0  0  0  0  0  0  0  0  0  0
    0.5823    1.2697   -0.6277 C   0  0  0  0  0  0  0  0  0  0  0  0
    1.9422    1.5581   -0.6757 C   0  0  0  0  0  0  0  0  0  0  0  0
    2.5872    0.4549   -0.1283 C   0  0  0  0  0  0  0  0  0  0  0  0
    1.5799   -0.4429    0.2219 N   0  0  0  0  0  0  0  0  0  0  0  0
    0.3196    0.0324   -0.0751 C   0  0  0  0  0  0  0  0  0  0  0  0
   -0.9967   -0.4871    0.0820 C   0  0  0  0  0  0  0  0  0  0  0  0
   -1.3347   -1.7464    0.6399 C   0  0  0  0  0  0  0  0  0  0  0  0
   -0.5226   -2.7366    1.1453 C   0  0  0  0  0  0  0  0  0  0  0  0
   -1.3310   -3.7753    1.5727 N   0  0  0  0  0  0  0  0  0  0  0  0
   -2.6539   -3.4750    1.3527 C   0  0  0  0  0  0  0  0  0  0  0  0
   -2.6832   -2.2312    0.7792 C   0  0  0  0  0  0  0  0  0  0  0  0
    4.0133    0.1798    0.0871 C   0  0  0  0  0  0  0  0  0  0  0  0
    4.5198   -0.9986    0.6610 C   0  0  0  0  0  0  0  0  0  0  0  0
    5.8290   -1.3445    0.9016 N   0  0  0  0  0  0  0  0  0  0  0  0
    6.8386   -0.4926    0.5724 C   0  0  0  0  0  0  0  0  0  0  0  0
    6.5007    0.7405   -0.0161 C   0  0  0  0  0  0  0  0  0  0  0  0
    7.3643    1.6941   -0.4012 N   0  0  0  0  0  0  0  0  0  0  0  0
    6.4494    2.9267   -1.0255 S   0  0  0  0  0  0  0  0  0  0  0  0
    4.9274    2.3070   -0.8350 N   0  0  0  0  0  0  0  0  0  0  0  0
    5.0491    1.0913   -0.2679 C   0  0  0  0  0  0  0  0  0  0  0  0
   -4.9386    0.5094   -1.6165 H   0  0  0  0  0  0  0  0  0  0  0  0
   -5.0401    1.2630    0.0226 H   0  0  0  0  0  0  0  0  0  0  0  0
   -6.8913   -0.6440   -0.2112 H   0  0  0  0  0  0  0  0  0  0  0  0
   -5.6560   -2.7114    0.8158 H   0  0  0  0  0  0  0  0  0  0  0  0
   -3.7116    2.5853   -1.4994 H   0  0  0  0  0  0  0  0  0  0  0  0
   -2.2087    4.4147   -2.2474 H   0  0  0  0  0  0  0  0  0  0  0  0
    0.2582    3.9811   -1.8948 H   0  0  0  0  0  0  0  0  0  0  0  0
    2.4057    2.4563   -1.0599 H   0  0  0  0  0  0  0  0  0  0  0  0
    1.7406   -1.3400    0.6445 H   0  0  0  0  0  0  0  0  0  0  0  0
    0.5428   -2.8411    1.2593 H   0  0  0  0  0  0  0  0  0  0  0  0
   -0.9960   -4.6347    1.9884 H   0  0  0  0  0  0  0  0  0  0  0  0
   -3.4356   -4.1710    1.6242 H   0  0  0  0  0  0  0  0  0  0  0  0
    3.8390   -1.7857    0.9809 H   0  0  0  0  0  0  0  0  0  0  0  0
    7.8538   -0.8041    0.7789 H   0  0  0  0  0  0  0  0  0  0  0  0
  1  2  1  0
  2  3  2  0
  3  4  1  0
  4  5  2  0
  5  6  1  0
  6  7  1  0
  7  8  2  0
  8  9  1  0
  9 10  1  0
 10 11  2  0
 11 12  1  0
 12 13  1  0
 13 14  2  0
 14 15  1  0
 15 16  1  0
 16 17  1  0
 17 18  1  0
 18 19  2  0
 19 20  1  0
 20 21  1  0
 21 22  2  0
 14 23  1  0
 23 24  2  0
 24 25  1  0
 25 26  2  0
 26 27  1  0
 27 28  2  0
 28 29  1  0
 29 30  1  0
 30 31  2  0
  5  1  1  0
 17  6  2  0
 22 18  1  0
 31 23  1  0
 22  4  1  0
 31 27  1  0
 11  7  1  0
 16 12  2  0
  1 32  1  0
  1 33  1  0
  2 34  1  0
  3 35  1  0
  8 36  1  0
  9 37  1  0
 10 38  1  0
 13 39  1  0
 15 40  1  0
 19 41  1  0
 20 42  1  0
 21 43  1  0
 24 44  1  0
 26 45  1  0
M  END
