
     RDKit          3D

 48 55  0  0  0  0  0  0  0  0999 V2000
   -4.9230    0.6216   -0.0195 C   0  0  0  0  0  0  0  0  0  0  0  0
   -5.9908   -0.4335    0.1697 C   0  0  0  0  0  0  0  0  0  0  0  0
   -5.4838   -1.6623    0.3232 C   0  0  0  0  0  0  0  0  0  0  0  0
   -4.0578   -1.4980    0.2661 C   0  0  0  0  0  0  0  0  0  0  0  0
   -3.6249   -0.1634    0.0716 C   0  0  0  0  0  0  0  0  0  0  0  0
   -2.2245    0.2981   -0.0191 C   0  0  0  0  0  0  0  0  0  0  0  0
   -1.7969    1.6642   -0.2912 C   0  0  0  0  0  0  0  0  0  0  0  0
   -2.7002    2.7368   -0.5407 C   0  0  0  0  0  0  0  0  0  0  0  0
   -2.3163    4.0459   -0.8403 C   0  0  0  0  0  0  0  0  0  0  0  0
   -0.9819    4.3542   -0.9076 C   0  0  0  0  0  0  0  0  0  0  0  0
   -0.0523    3.3504   -0.6616 C   0  0  0  0  0  0  0  0  0  0  0  0
   -0.4061    2.0060   -0.3441 C   0  0  0  0  0  0  0  0  0  0  0  0
    0.6028    1.0305   -0.0529 C   0  0  0  0  0  0  0  0  0  0  0  0
    1.9977    1.3288   -0.0265 C   0  0  0  0  0  0  0  0  0  0  0  0
    2.9495    0.3871    0.3487 C   0  0  0  0  0  0  0  0  0  0  0  0
    2.5899   -0.8464    0.7216 N   0  0  0  0  0  0  0  0  0  0  0  0
    1.2670   -1.1319    0.6809 C   0  0  0  0  0  0  0  0  0  0  0  0
    0.2234   -0.2887    0.2503 C   0  0  0  0  0  0  0  0  0  0  0  0
   -1.1629   -0.6814    0.1665 C   0  0  0  0  0  0  0  0  0  0  0  0
   -1.6577   -2.0410    0.2504 C   0  0  0  0  0  0  0  0  0  0  0  0
   -0.9752   -3.2373    0.1655 C   0  0  0  0  0  0  0  0  0  0  0  0
   -1.8817   -4.2721    0.2939 N   0  0  0  0  0  0  0  0  0  0  0  0
   -3.1546   -3.7693    0.3762 C   0  0  0  0  0  0  0  0  0  0  0  0
   -3.0352   -2.4058    0.3096 C   0  0  0  0  0  0  0  0  0  0  0  0
    4.3937    0.6452    0.3923 C   0  0  0  0  0  0  0  0  0  0  0  0
    5.0347    2.2453    0.5952 S   0  0  0  0  0  0  0  0  0  0  0  0
    6.6726    1.7223    0.5609 C   0  0  0  0  0  0  0  0  0  0  0  0
    6.7333    0.3689    0.4072 C   0  0  0  0  0  0  0  0  0  0  0  0
    8.1481   -0.7411    0.3036 S   0  0  0  0  0  0  0  0  0  0  0  0
    6.9446   -2.0111    0.1391 C   0  0  0  0  0  0  0  0  0  0  0  0
    5.6065   -1.6019    0.1620 C   0  0  0  0  0  0  0  0  0  0  0  0
    5.4611   -0.1957    0.3221 C   0  0  0  0  0  0  0  0  0  0  0  0
   -5.0524    1.0640   -1.0116 H   0  0  0  0  0  0  0  0  0  0  0  0
   -4.9973    1.3626    0.7817 H   0  0  0  0  0  0  0  0  0  0  0  0
   -7.0471   -0.2043    0.1672 H   0  0  0  0  0  0  0  0  0  0  0  0
   -6.0125   -2.5889    0.4663 H   0  0  0  0  0  0  0  0  0  0  0  0
   -3.7686    2.5979   -0.5197 H   0  0  0  0  0  0  0  0  0  0  0  0
   -3.0688    4.8083   -1.0226 H   0  0  0  0  0  0  0  0  0  0  0  0
   -0.6557    5.3631   -1.1425 H   0  0  0  0  0  0  0  0  0  0  0  0
    0.9845    3.6663   -0.7243 H   0  0  0  0  0  0  0  0  0  0  0  0
    2.3557    2.3127   -0.2990 H   0  0  0  0  0  0  0  0  0  0  0  0
    1.0655   -2.1127    1.0933 H   0  0  0  0  0  0  0  0  0  0  0  0
    0.0585   -3.4943   -0.0090 H   0  0  0  0  0  0  0  0  0  0  0  0
   -1.6443   -5.2558    0.2731 H   0  0  0  0  0  0  0  0  0  0  0  0
   -4.0116   -4.4262    0.4363 H   0  0  0  0  0  0  0  0  0  0  0  0
    7.5047    2.4062    0.6546 H   0  0  0  0  0  0  0  0  0  0  0  0
    7.3077   -3.0240    0.0313 H   0  0  0  0  0  0  0  0  0  0  0  0
    4.7825   -2.2995    0.0702 H   0  0  0  0  0  0  0  0  0  0  0  0
  1  2  1  0
  2  3  2  0
  3  4  1  0
  4  5  2  0
  5  6  1  0
  6  7  2  0
  7  8  1  0
  8  9  2  0
  9 10  1  0
 10 11  2  0
 11 12  1  0
 12 13  2  0
 13 14  1  0
 14 15  2  0
 15 16  1  0
 16 17  2  0
 17 18  1  0
 18 19  2  0
 19 20  1  0
 20 21  2  0
 21 22  1  0
 22 23  1  0
 23 24  2  0
 15 25  1  0
 25 26  1  0
 26 27  1  0
 27 28  2  0
 28 29  1  0
 29 30  1  0
 30 31  2  0
 31 32  1  0
  5  1  1  0
 19  6  1  0
 24 20  1  0
 32 25  2  0
 24  4  1  0
 32 28  1  0
 12  7  1  0
 18 13  1  0
  1 33  1  0
  1 34  1  0
  2 35  1  0
  3 36  1  0
  8 37  1  0
  9 38  1  0
 10 39  1  0
 11 40  1  0
 14 41  1  0
 17 42  1  0
 21 43  1  0
 22 44  1  0
 23 45  1  0
 27 46  1  0
 30 47  1  0
 31 48  1  0
M  END
