
     RDKit          3D

 48 55  0  0  0  0  0  0  0  0999 V2000
   -4.9772    0.6296   -0.7022 C   0  0  0  0  0  0  0  0  0  0  0  0
   -6.1397    0.1483    0.1354 C   0  0  0  0  0  0  0  0  0  0  0  0
   -5.7702   -0.7176    1.0852 C   0  0  0  0  0  0  0  0  0  0  0  0
   -4.3405   -0.8445    0.9657 C   0  0  0  0  0  0  0  0  0  0  0  0
   -3.7787   -0.0644   -0.0760 C   0  0  0  0  0  0  0  0  0  0  0  0
   -2.3525    0.0273   -0.4207 C   0  0  0  0  0  0  0  0  0  0  0  0
   -1.7917    0.7470   -1.5603 C   0  0  0  0  0  0  0  0  0  0  0  0
   -2.5818    1.4037   -2.5454 C   0  0  0  0  0  0  0  0  0  0  0  0
   -2.0668    2.0708   -3.6616 C   0  0  0  0  0  0  0  0  0  0  0  0
   -0.7078    2.1239   -3.8468 C   0  0  0  0  0  0  0  0  0  0  0  0
    0.1144    1.5046   -2.9150 C   0  0  0  0  0  0  0  0  0  0  0  0
   -0.3755    0.8017   -1.7730 C   0  0  0  0  0  0  0  0  0  0  0  0
    0.5290    0.2058   -0.8343 C   0  0  0  0  0  0  0  0  0  0  0  0
    1.9468    0.2405   -0.9712 C   0  0  0  0  0  0  0  0  0  0  0  0
    2.7929   -0.2084    0.0382 C   0  0  0  0  0  0  0  0  0  0  0  0
    2.3129   -0.6447    1.2130 N   0  0  0  0  0  0  0  0  0  0  0  0
    0.9669   -0.7536    1.3033 C   0  0  0  0  0  0  0  0  0  0  0  0
    0.0161   -0.4329    0.3076 C   0  0  0  0  0  0  0  0  0  0  0  0
   -1.4032   -0.6546    0.4382 C   0  0  0  0  0  0  0  0  0  0  0  0
   -2.0207   -1.5583    1.3970 C   0  0  0  0  0  0  0  0  0  0  0  0
   -1.3861   -2.5721    2.0832 C   0  0  0  0  0  0  0  0  0  0  0  0
   -2.4398   -3.4430    3.1314 S   0  0  0  0  0  0  0  0  0  0  0  0
   -3.8003   -2.5589    2.5888 C   0  0  0  0  0  0  0  0  0  0  0  0
   -3.4384   -1.6276    1.6465 C   0  0  0  0  0  0  0  0  0  0  0  0
    4.2454   -0.1455   -0.0580 C   0  0  0  0  0  0  0  0  0  0  0  0
    5.1389   -0.4191   -1.5284 S   0  0  0  0  0  0  0  0  0  0  0  0
    6.6794   -0.1078   -0.7789 C   0  0  0  0  0  0  0  0  0  0  0  0
    6.4535    0.1560    0.5288 C   0  0  0  0  0  0  0  0  0  0  0  0
    7.1338    0.5034    1.7270 C   0  0  0  0  0  0  0  0  0  0  0  0
    6.1555    0.6331    2.7388 C   0  0  0  0  0  0  0  0  0  0  0  0
    4.8800    0.3500    2.2552 N   0  0  0  0  0  0  0  0  0  0  0  0
    5.1378    0.1105    0.9296 C   0  0  0  0  0  0  0  0  0  0  0  0
   -4.8898    1.7176   -0.6258 H   0  0  0  0  0  0  0  0  0  0  0  0
   -5.1455    0.2935   -1.7295 H   0  0  0  0  0  0  0  0  0  0  0  0
   -7.1597    0.4624   -0.0436 H   0  0  0  0  0  0  0  0  0  0  0  0
   -6.4015   -1.2223    1.7951 H   0  0  0  0  0  0  0  0  0  0  0  0
   -3.6586    1.4112   -2.4964 H   0  0  0  0  0  0  0  0  0  0  0  0
   -2.7360    2.5394   -4.3741 H   0  0  0  0  0  0  0  0  0  0  0  0
   -0.2797    2.6498   -4.6989 H   0  0  0  0  0  0  0  0  0  0  0  0
    1.1785    1.6008   -3.1125 H   0  0  0  0  0  0  0  0  0  0  0  0
    2.4102    0.6404   -1.8605 H   0  0  0  0  0  0  0  0  0  0  0  0
    0.6565   -1.0648    2.2991 H   0  0  0  0  0  0  0  0  0  0  0  0
   -0.3616   -2.9080    2.0386 H   0  0  0  0  0  0  0  0  0  0  0  0
   -4.7842   -2.8016    2.9675 H   0  0  0  0  0  0  0  0  0  0  0  0
    7.6026   -0.1460   -1.3440 H   0  0  0  0  0  0  0  0  0  0  0  0
    8.1949    0.6687    1.8615 H   0  0  0  0  0  0  0  0  0  0  0  0
    6.2725    0.9265    3.7779 H   0  0  0  0  0  0  0  0  0  0  0  0
    3.9690    0.3293    2.7048 H   0  0  0  0  0  0  0  0  0  0  0  0
  1  2  1  0
  2  3  2  0
  3  4  1  0
  4  5  2  0
  5  6  1  0
  6  7  2  0
  7  8  1  0
  8  9  2  0
  9 10  1  0
 10 11  2  0
 11 12  1  0
 12 13  2  0
 13 14  1  0
 14 15  2  0
 15 16  1  0
 16 17  2  0
 17 18  1  0
 18 19  2  0
 19 20  1  0
 20 21  2  0
 21 22  1  0
 22 23  1  0
 23 24  2  0
 15 25  1  0
 25 26  1  0
 26 27  1  0
 27 28  2  0
 28 29  1  0
 29 30  2  0
 30 31  1  0
 31 32  1  0
  5  1  1  0
 19  6  1  0
 24 20  1  0
 32 25  2  0
 24  4  1  0
 32 28  1  0
 12  7  1  0
 18 13  1  0
  1 33  1  0
  1 34  1  0
  2 35  1  0
  3 36  1  0
  8 37  1  0
  9 38  1  0
 10 39  1  0
 11 40  1  0
 14 41  1  0
 17 42  1  0
 21 43  1  0
 23 44  1  0
 27 45  1  0
 29 46  1  0
 30 47  1  0
 31 48  1  0
M  END
