
     RDKit          3D

 48 55  0  0  0  0  0  0  0  0999 V2000
    3.5874   -1.8320   -2.5132 Si  0  0  0  0  0  4  0  0  0  0  0  0
    4.2948   -0.5245   -1.3896 C   0  0  0  0  0  0  0  0  0  0  0  0
    3.3458    0.0148   -0.5941 C   0  0  0  0  0  0  0  0  0  0  0  0
    3.5620    1.1690    0.2976 C   0  0  0  0  0  0  0  0  0  0  0  0
    2.4817    1.7305    0.8897 C   0  0  0  0  0  0  0  0  0  0  0  0
    1.1964    1.1307    0.7073 C   0  0  0  0  0  0  0  0  0  0  0  0
   -0.2119    1.8449    1.3025 S   0  0  0  0  0  0  0  0  0  0  0  0
   -1.2365    0.5653    0.7420 C   0  0  0  0  0  0  0  0  0  0  0  0
   -0.4511   -0.5040    0.2713 C   0  0  0  0  0  0  0  0  0  0  0  0
    0.9085   -0.0382    0.0237 C   0  0  0  0  0  0  0  0  0  0  0  0
    1.9871   -0.5883   -0.7649 C   0  0  0  0  0  0  0  0  0  0  0  0
    1.9155   -1.4882   -1.7660 C   0  0  0  0  0  0  0  0  0  0  0  0
   -1.1120   -1.7699    0.0908 C   0  0  0  0  0  0  0  0  0  0  0  0
   -0.3287   -2.9432   -0.0398 C   0  0  0  0  0  0  0  0  0  0  0  0
   -0.8968   -4.1941   -0.2626 C   0  0  0  0  0  0  0  0  0  0  0  0
   -2.2707   -4.3072   -0.3352 C   0  0  0  0  0  0  0  0  0  0  0  0
   -3.0678   -3.1765   -0.1395 C   0  0  0  0  0  0  0  0  0  0  0  0
   -2.5303   -1.8835    0.1118 C   0  0  0  0  0  0  0  0  0  0  0  0
   -3.3315   -0.7411    0.4038 C   0  0  0  0  0  0  0  0  0  0  0  0
   -4.7954   -0.7920    0.3956 C   0  0  0  0  0  0  0  0  0  0  0  0
   -5.6881    0.2524    0.7256 C   0  0  0  0  0  0  0  0  0  0  0  0
   -4.9809    1.3823    1.0726 C   0  0  0  0  0  0  0  0  0  0  0  0
   -5.5609    2.5688    1.4381 C   0  0  0  0  0  0  0  0  0  0  0  0
   -4.5338    3.4447    1.6846 N   0  0  0  0  0  0  0  0  0  0  0  0
   -3.3198    2.8225    1.4713 C   0  0  0  0  0  0  0  0  0  0  0  0
   -3.5579    1.5177    1.0988 C   0  0  0  0  0  0  0  0  0  0  0  0
   -2.6527    0.4803    0.7618 C   0  0  0  0  0  0  0  0  0  0  0  0
    4.8247    1.7870    0.5518 C   0  0  0  0  0  0  0  0  0  0  0  0
    5.3342    2.9960    0.1063 C   0  0  0  0  0  0  0  0  0  0  0  0
    6.6052    3.3234    0.5397 N   0  0  0  0  0  0  0  0  0  0  0  0
    7.0546    2.3605    1.3123 C   0  0  0  0  0  0  0  0  0  0  0  0
    6.0030    1.0311    1.5607 S   0  0  0  0  0  0  0  0  0  0  0  0
    3.6615   -1.4496   -3.9432 H   0  0  0  0  0  0  0  0  0  0  0  0
    4.0825   -3.1898   -2.1830 H   0  0  0  0  0  0  0  0  0  0  0  0
    5.3298   -0.2313   -1.4696 H   0  0  0  0  0  0  0  0  0  0  0  0
    2.5721    2.6011    1.5341 H   0  0  0  0  0  0  0  0  0  0  0  0
    1.0345   -1.9721   -2.1552 H   0  0  0  0  0  0  0  0  0  0  0  0
    0.7503   -2.9050    0.0794 H   0  0  0  0  0  0  0  0  0  0  0  0
   -0.2649   -5.0718   -0.3643 H   0  0  0  0  0  0  0  0  0  0  0  0
   -2.7329   -5.2752   -0.5092 H   0  0  0  0  0  0  0  0  0  0  0  0
   -4.1397   -3.3469   -0.1628 H   0  0  0  0  0  0  0  0  0  0  0  0
   -5.2901   -1.7189    0.1095 H   0  0  0  0  0  0  0  0  0  0  0  0
   -6.7631    0.1520    0.7005 H   0  0  0  0  0  0  0  0  0  0  0  0
   -6.5925    2.8763    1.5414 H   0  0  0  0  0  0  0  0  0  0  0  0
   -4.6456    4.4089    1.9700 H   0  0  0  0  0  0  0  0  0  0  0  0
   -2.4209    3.4012    1.6124 H   0  0  0  0  0  0  0  0  0  0  0  0
    4.8105    3.6837   -0.5476 H   0  0  0  0  0  0  0  0  0  0  0  0
    8.0343    2.3983    1.7704 H   0  0  0  0  0  0  0  0  0  0  0  0
  1  2  1  0
  2  3  2  0
  3  4  1  0
  4  5  2  0
  5  6  1  0
  6  7  1  0
  7  8  1  0
  8  9  2  0
  9 10  1  0
 10 11  1  0
 11 12  2  0
  9 13  1  0
 13 14  2  0
 14 15  1  0
 15 16  2  0
 16 17  1  0
 17 18  2  0
 18 19  1  0
 19 20  1  0
 20 21  2  0
 21 22  1  0
 22 23  2  0
 23 24  1  0
 24 25  1  0
 25 26  2  0
 26 27  1  0
  4 28  1  0
 28 29  2  0
 29 30  1  0
 30 31  2  0
 31 32  1  0
 12  1  1  0
 18 13  1  0
 27 19  2  0
 32 28  1  0
 11  3  1  0
 26 22  1  0
 10  6  2  0
 27  8  1  0
  1 33  1  0
  1 34  1  0
  2 35  1  0
  5 36  1  0
 12 37  1  0
 14 38  1  0
 15 39  1  0
 16 40  1  0
 17 41  1  0
 20 42  1  0
 21 43  1  0
 23 44  1  0
 24 45  1  0
 25 46  1  0
 29 47  1  0
 31 48  1  0
M  END
