
     RDKit          3D

 46 53  0  0  0  0  0  0  0  0999 V2000
   -5.0860    1.5904    0.4167 C   0  0  0  0  0  0  0  0  0  0  0  0
   -6.3043    0.6916    0.3460 C   0  0  0  0  0  0  0  0  0  0  0  0
   -5.9962   -0.5921    0.1083 C   0  0  0  0  0  0  0  0  0  0  0  0
   -4.5622   -0.6366    0.0048 C   0  0  0  0  0  0  0  0  0  0  0  0
   -3.9540    0.6218    0.1770 C   0  0  0  0  0  0  0  0  0  0  0  0
   -2.5190    0.8434    0.1187 C   0  0  0  0  0  0  0  0  0  0  0  0
   -1.8202    2.0781    0.2816 C   0  0  0  0  0  0  0  0  0  0  0  0
   -2.4259    3.2946    0.5291 C   0  0  0  0  0  0  0  0  0  0  0  0
   -1.3100    4.6036    0.6771 S   0  0  0  0  0  0  0  0  0  0  0  0
    0.0309    3.5702    0.4114 C   0  0  0  0  0  0  0  0  0  0  0  0
   -0.4182    2.2928    0.2242 C   0  0  0  0  0  0  0  0  0  0  0  0
    0.4373    1.1711   -0.0239 C   0  0  0  0  0  0  0  0  0  0  0  0
    1.8434    1.2383   -0.1065 C   0  0  0  0  0  0  0  0  0  0  0  0
    2.3685   -0.0115   -0.3511 C   0  0  0  0  0  0  0  0  0  0  0  0
    1.1428   -1.1950   -0.4794 S   0  0  0  0  0  0  0  0  0  0  0  0
   -0.1551   -0.0733   -0.1964 C   0  0  0  0  0  0  0  0  0  0  0  0
   -1.5755   -0.2592   -0.1314 C   0  0  0  0  0  0  0  0  0  0  0  0
   -2.2520   -1.5020   -0.2952 C   0  0  0  0  0  0  0  0  0  0  0  0
   -1.7498   -2.7612   -0.5380 C   0  0  0  0  0  0  0  0  0  0  0  0
   -2.8066   -3.6474   -0.6159 N   0  0  0  0  0  0  0  0  0  0  0  0
   -3.9948   -2.9861   -0.4273 C   0  0  0  0  0  0  0  0  0  0  0  0
   -3.6793   -1.6675   -0.2277 C   0  0  0  0  0  0  0  0  0  0  0  0
    3.7596   -0.4001   -0.5040 C   0  0  0  0  0  0  0  0  0  0  0  0
    4.3068   -0.9238   -1.7012 C   0  0  0  0  0  0  0  0  0  0  0  0
    5.6847   -1.2816   -1.8591 C   0  0  0  0  0  0  0  0  0  0  0  0
    6.6545   -1.1530   -0.8415 C   0  0  0  0  0  0  0  0  0  0  0  0
    6.1104   -0.6401    0.3365 C   0  0  0  0  0  0  0  0  0  0  0  0
    6.8645   -0.4348    1.4652 C   0  0  0  0  0  0  0  0  0  0  0  0
    5.9065    0.1879    2.7486 S   0  0  0  0  0  0  0  0  0  0  0  0
    4.4785    0.1774    1.7891 C   0  0  0  0  0  0  0  0  0  0  0  0
    4.7236   -0.2740    0.5122 C   0  0  0  0  0  0  0  0  0  0  0  0
   -5.0193    2.0453    1.4090 H   0  0  0  0  0  0  0  0  0  0  0  0
   -5.1383    2.3469   -0.3714 H   0  0  0  0  0  0  0  0  0  0  0  0
   -7.3113    1.0625    0.4763 H   0  0  0  0  0  0  0  0  0  0  0  0
   -6.6642   -1.4306    0.0114 H   0  0  0  0  0  0  0  0  0  0  0  0
   -3.4665    3.5450    0.6416 H   0  0  0  0  0  0  0  0  0  0  0  0
    1.0350    3.9689    0.4116 H   0  0  0  0  0  0  0  0  0  0  0  0
    2.4573    2.1236   -0.0010 H   0  0  0  0  0  0  0  0  0  0  0  0
   -0.7517   -3.1490   -0.6669 H   0  0  0  0  0  0  0  0  0  0  0  0
   -2.7142   -4.6404   -0.7861 H   0  0  0  0  0  0  0  0  0  0  0  0
   -4.9370   -3.5158   -0.4527 H   0  0  0  0  0  0  0  0  0  0  0  0
    3.6497   -1.0589   -2.5615 H   0  0  0  0  0  0  0  0  0  0  0  0
    6.0007   -1.6752   -2.8261 H   0  0  0  0  0  0  0  0  0  0  0  0
    7.6908   -1.4303   -0.9827 H   0  0  0  0  0  0  0  0  0  0  0  0
    7.9193   -0.6155    1.6195 H   0  0  0  0  0  0  0  0  0  0  0  0
    3.5466    0.5017    2.2312 H   0  0  0  0  0  0  0  0  0  0  0  0
  1  2  1  0
  2  3  2  0
  3  4  1  0
  4  5  2  0
  5  6  1  0
  6  7  1  0
  7  8  2  0
  8  9  1  0
  9 10  1  0
 10 11  2  0
 11 12  1  0
 12 13  1  0
 13 14  2  0
 14 15  1  0
 15 16  1  0
 16 17  1  0
 17 18  1  0
 18 19  2  0
 19 20  1  0
 20 21  1  0
 21 22  2  0
 14 23  1  0
 23 24  2  0
 24 25  1  0
 25 26  2  0
 26 27  1  0
 27 28  2  0
 28 29  1  0
 29 30  1  0
 30 31  2  0
  5  1  1  0
 17  6  2  0
 22 18  1  0
 31 23  1  0
 22  4  1  0
 31 27  1  0
 11  7  1  0
 16 12  2  0
  1 32  1  0
  1 33  1  0
  2 34  1  0
  3 35  1  0
  8 36  1  0
 10 37  1  0
 13 38  1  0
 19 39  1  0
 20 40  1  0
 21 41  1  0
 24 42  1  0
 25 43  1  0
 26 44  1  0
 28 45  1  0
 30 46  1  0
M  END
