
     RDKit          3D

 48 55  0  0  0  0  0  0  0  0999 V2000
   -5.5107    1.2682    1.1170 C   0  0  0  0  0  0  0  0  0  0  0  0
   -6.8203    0.5256    0.9191 C   0  0  0  0  0  0  0  0  0  0  0  0
   -6.6760   -0.6413    0.2710 C   0  0  0  0  0  0  0  0  0  0  0  0
   -5.2714   -0.7580   -0.0079 C   0  0  0  0  0  0  0  0  0  0  0  0
   -4.5239    0.3296    0.4611 C   0  0  0  0  0  0  0  0  0  0  0  0
   -3.0915    0.4528    0.3086 C   0  0  0  0  0  0  0  0  0  0  0  0
   -2.4002    1.6002    0.8280 C   0  0  0  0  0  0  0  0  0  0  0  0
   -2.9558    2.6388    1.4812 N   0  0  0  0  0  0  0  0  0  0  0  0
   -1.7456    3.6905    1.8737 S   0  0  0  0  0  0  0  0  0  0  0  0
   -0.4472    2.8917    1.2400 N   0  0  0  0  0  0  0  0  0  0  0  0
   -0.9111    1.7559    0.6847 C   0  0  0  0  0  0  0  0  0  0  0  0
   -0.1169    0.7715    0.0187 C   0  0  0  0  0  0  0  0  0  0  0  0
    1.2771    0.9578   -0.0997 C   0  0  0  0  0  0  0  0  0  0  0  0
    2.0312   -0.0049   -0.7461 C   0  0  0  0  0  0  0  0  0  0  0  0
    1.4553   -1.0955   -1.2894 N   0  0  0  0  0  0  0  0  0  0  0  0
    0.1088   -1.2435   -1.1557 C   0  0  0  0  0  0  0  0  0  0  0  0
   -0.7775   -0.3678   -0.5075 C   0  0  0  0  0  0  0  0  0  0  0  0
   -2.2364   -0.5410   -0.3615 C   0  0  0  0  0  0  0  0  0  0  0  0
   -3.0789   -1.6318   -0.8044 C   0  0  0  0  0  0  0  0  0  0  0  0
   -2.7551   -2.8038   -1.4493 C   0  0  0  0  0  0  0  0  0  0  0  0
   -3.8716   -3.5618   -1.6803 O   0  0  0  0  0  0  0  0  0  0  0  0
   -4.9402   -2.8872   -1.1753 C   0  0  0  0  0  0  0  0  0  0  0  0
   -4.5064   -1.7127   -0.6288 C   0  0  0  0  0  0  0  0  0  0  0  0
    3.4857    0.1207   -0.9313 C   0  0  0  0  0  0  0  0  0  0  0  0
    3.9725    0.2306   -2.2494 C   0  0  0  0  0  0  0  0  0  0  0  0
    5.3283    0.3998   -2.5080 C   0  0  0  0  0  0  0  0  0  0  0  0
    6.2286    0.4588   -1.4500 C   0  0  0  0  0  0  0  0  0  0  0  0
    5.7912    0.3331   -0.1238 C   0  0  0  0  0  0  0  0  0  0  0  0
    6.7245    0.3805    0.9254 C   0  0  0  0  0  0  0  0  0  0  0  0
    6.3236    0.2387    2.2523 C   0  0  0  0  0  0  0  0  0  0  0  0
    4.9826    0.0398    2.5473 C   0  0  0  0  0  0  0  0  0  0  0  0
    4.0420   -0.0072    1.5153 C   0  0  0  0  0  0  0  0  0  0  0  0
    4.4111    0.1509    0.1562 C   0  0  0  0  0  0  0  0  0  0  0  0
   -5.3048    1.3862    2.1847 H   0  0  0  0  0  0  0  0  0  0  0  0
   -5.5464    2.2347    0.6062 H   0  0  0  0  0  0  0  0  0  0  0  0
   -7.7651    0.9145    1.2732 H   0  0  0  0  0  0  0  0  0  0  0  0
   -7.4412   -1.3517    0.0079 H   0  0  0  0  0  0  0  0  0  0  0  0
    1.7597    1.8447    0.3034 H   0  0  0  0  0  0  0  0  0  0  0  0
   -0.2268   -2.1506   -1.6356 H   0  0  0  0  0  0  0  0  0  0  0  0
   -1.8558   -3.2750   -1.8105 H   0  0  0  0  0  0  0  0  0  0  0  0
   -5.8987   -3.3745   -1.2840 H   0  0  0  0  0  0  0  0  0  0  0  0
    3.2759    0.1867   -3.0856 H   0  0  0  0  0  0  0  0  0  0  0  0
    5.6812    0.4859   -3.5321 H   0  0  0  0  0  0  0  0  0  0  0  0
    7.2854    0.5938   -1.6712 H   0  0  0  0  0  0  0  0  0  0  0  0
    7.7822    0.5241    0.7140 H   0  0  0  0  0  0  0  0  0  0  0  0
    7.0597    0.2745    3.0507 H   0  0  0  0  0  0  0  0  0  0  0  0
    4.6632   -0.0854    3.5786 H   0  0  0  0  0  0  0  0  0  0  0  0
    3.0054   -0.1868    1.7911 H   0  0  0  0  0  0  0  0  0  0  0  0
  1  2  1  0
  2  3  2  0
  3  4  1  0
  4  5  2  0
  5  6  1  0
  6  7  1  0
  7  8  2  0
  8  9  1  0
  9 10  1  0
 10 11  2  0
 11 12  1  0
 12 13  2  0
 13 14  1  0
 14 15  2  0
 15 16  1  0
 16 17  2  0
 17 18  1  0
 18 19  1  0
 19 20  2  0
 20 21  1  0
 21 22  1  0
 22 23  2  0
 14 24  1  0
 24 25  2  0
 25 26  1  0
 26 27  2  0
 27 28  1  0
 28 29  2  0
 29 30  1  0
 30 31  2  0
 31 32  1  0
 32 33  2  0
  5  1  1  0
 18  6  2  0
 23 19  1  0
 33 24  1  0
 23  4  1  0
 33 28  1  0
 11  7  1  0
 17 12  1  0
  1 34  1  0
  1 35  1  0
  2 36  1  0
  3 37  1  0
 13 38  1  0
 16 39  1  0
 20 40  1  0
 22 41  1  0
 25 42  1  0
 26 43  1  0
 27 44  1  0
 29 45  1  0
 30 46  1  0
 31 47  1  0
 32 48  1  0
M  END
