
     RDKit          3D

 41 47  0  0  0  0  0  0  0  0999 V2000
    5.0423   -1.3989   -0.8030 C   0  0  0  0  0  0  0  0  0  0  0  0
    6.3492   -0.8171   -0.3016 C   0  0  0  0  0  0  0  0  0  0  0  0
    6.1901    0.2975    0.4325 C   0  0  0  0  0  0  0  0  0  0  0  0
    4.7676    0.5594    0.4873 C   0  0  0  0  0  0  0  0  0  0  0  0
    4.0539   -0.4257   -0.2340 C   0  0  0  0  0  0  0  0  0  0  0  0
    2.6688   -0.3970   -0.3325 C   0  0  0  0  0  0  0  0  0  0  0  0
    1.7524   -1.3893   -1.0771 C   0  0  0  0  0  0  0  0  0  0  0  0
    0.4413   -0.7369   -0.7489 C   0  0  0  0  0  0  0  0  0  0  0  0
   -0.9306   -0.9141   -0.9857 C   0  0  0  0  0  0  0  0  0  0  0  0
   -1.6006    0.1302   -0.3406 C   0  0  0  0  0  0  0  0  0  0  0  0
   -0.6424    0.9290    0.2733 N   0  0  0  0  0  0  0  0  0  0  0  0
    0.5658    0.3906    0.0166 C   0  0  0  0  0  0  0  0  0  0  0  0
    1.9269    0.6465    0.3044 C   0  0  0  0  0  0  0  0  0  0  0  0
    2.5643    1.6641    1.0398 C   0  0  0  0  0  0  0  0  0  0  0  0
    2.0203    2.7055    1.6896 N   0  0  0  0  0  0  0  0  0  0  0  0
    3.2952    3.5420    2.3604 S   0  0  0  0  0  0  0  0  0  0  0  0
    4.5942    2.6292    1.8594 N   0  0  0  0  0  0  0  0  0  0  0  0
    4.0853    1.6176    1.1383 C   0  0  0  0  0  0  0  0  0  0  0  0
   -3.0152    0.4406   -0.2662 C   0  0  0  0  0  0  0  0  0  0  0  0
   -3.5650    1.7282   -0.4902 C   0  0  0  0  0  0  0  0  0  0  0  0
   -4.9719    2.0286   -0.4195 C   0  0  0  0  0  0  0  0  0  0  0  0
   -5.9740    1.0791   -0.1142 C   0  0  0  0  0  0  0  0  0  0  0  0
   -5.4114   -0.1712    0.1066 C   0  0  0  0  0  0  0  0  0  0  0  0
   -6.0970   -1.3105    0.4392 C   0  0  0  0  0  0  0  0  0  0  0  0
   -5.1596   -2.3110    0.5857 N   0  0  0  0  0  0  0  0  0  0  0  0
   -3.8922   -1.8186    0.3525 C   0  0  0  0  0  0  0  0  0  0  0  0
   -4.0188   -0.4869    0.0365 C   0  0  0  0  0  0  0  0  0  0  0  0
    5.0127   -1.4037   -1.8962 H   0  0  0  0  0  0  0  0  0  0  0  0
    4.8860   -2.4050   -0.4039 H   0  0  0  0  0  0  0  0  0  0  0  0
    7.3081   -1.2663   -0.5216 H   0  0  0  0  0  0  0  0  0  0  0  0
    6.9495    0.9018    0.9023 H   0  0  0  0  0  0  0  0  0  0  0  0
    1.9558   -1.3798   -2.1506 H   0  0  0  0  0  0  0  0  0  0  0  0
    1.8289   -2.3909   -0.6470 H   0  0  0  0  0  0  0  0  0  0  0  0
   -1.4043   -1.6965   -1.5641 H   0  0  0  0  0  0  0  0  0  0  0  0
   -0.8280    1.7541    0.8292 H   0  0  0  0  0  0  0  0  0  0  0  0
   -2.8933    2.5462   -0.7514 H   0  0  0  0  0  0  0  0  0  0  0  0
   -5.2811    3.0554   -0.6184 H   0  0  0  0  0  0  0  0  0  0  0  0
   -7.0264    1.3164   -0.0616 H   0  0  0  0  0  0  0  0  0  0  0  0
   -7.1483   -1.5108    0.5934 H   0  0  0  0  0  0  0  0  0  0  0  0
   -5.3688   -3.2675    0.8397 H   0  0  0  0  0  0  0  0  0  0  0  0
   -3.0297   -2.4644    0.4418 H   0  0  0  0  0  0  0  0  0  0  0  0
  1  2  1  0
  2  3  2  0
  3  4  1  0
  4  5  2  0
  5  6  1  0
  6  7  1  0
  7  8  1  0
  8  9  1  0
  9 10  2  0
 10 11  1  0
 11 12  1  0
 12 13  1  0
 13 14  1  0
 14 15  2  0
 15 16  1  0
 16 17  1  0
 17 18  2  0
 10 19  1  0
 19 20  2  0
 20 21  1  0
 21 22  2  0
 22 23  1  0
 23 24  2  0
 24 25  1  0
 25 26  1  0
 26 27  2  0
  5  1  1  0
 13  6  2  0
 18 14  1  0
 27 19  1  0
 18  4  1  0
 27 23  1  0
 12  8  2  0
  1 28  1  0
  1 29  1  0
  2 30  1  0
  3 31  1  0
  7 32  1  0
  7 33  1  0
  9 34  1  0
 11 35  1  0
 20 36  1  0
 21 37  1  0
 22 38  1  0
 24 39  1  0
 25 40  1  0
 26 41  1  0
M  END
