
     RDKit          3D

 48 55  0  0  0  0  0  0  0  0999 V2000
    1.7499   -2.7862   -2.4527 Si  0  0  0  0  0  4  0  0  0  0  0  0
    2.0462   -0.9499   -2.5022 C   0  0  0  0  0  0  0  0  0  0  0  0
    1.3926   -0.3137   -1.5068 C   0  0  0  0  0  0  0  0  0  0  0  0
    1.5595    1.1120   -1.1846 C   0  0  0  0  0  0  0  0  0  0  0  0
    1.0075    1.5873   -0.0456 C   0  0  0  0  0  0  0  0  0  0  0  0
    0.1940    0.7165    0.7471 C   0  0  0  0  0  0  0  0  0  0  0  0
   -0.4366    1.2243    2.2472 S   0  0  0  0  0  0  0  0  0  0  0  0
   -1.3593   -0.2327    2.4683 C   0  0  0  0  0  0  0  0  0  0  0  0
   -1.1793   -1.0290    1.3368 C   0  0  0  0  0  0  0  0  0  0  0  0
   -2.0549   -2.1749    1.2324 C   0  0  0  0  0  0  0  0  0  0  0  0
   -2.2753   -2.9281    0.1141 C   0  0  0  0  0  0  0  0  0  0  0  0
   -3.3882   -4.1893    0.4624 S   0  0  0  0  0  0  0  0  0  0  0  0
   -3.6266   -3.6181    2.0688 C   0  0  0  0  0  0  0  0  0  0  0  0
   -2.8781   -2.4910    2.3466 C   0  0  0  0  0  0  0  0  0  0  0  0
   -2.9864   -1.7820    3.5680 C   0  0  0  0  0  0  0  0  0  0  0  0
   -3.7953   -2.1166    4.6838 C   0  0  0  0  0  0  0  0  0  0  0  0
   -3.8329   -1.2838    5.8006 C   0  0  0  0  0  0  0  0  0  0  0  0
   -3.0798   -0.1134    5.8220 C   0  0  0  0  0  0  0  0  0  0  0  0
   -2.2773    0.2320    4.7300 C   0  0  0  0  0  0  0  0  0  0  0  0
   -2.2059   -0.5935    3.5850 C   0  0  0  0  0  0  0  0  0  0  0  0
   -0.1558   -0.5975    0.4497 C   0  0  0  0  0  0  0  0  0  0  0  0
    0.5485   -1.2073   -0.6518 C   0  0  0  0  0  0  0  0  0  0  0  0
    0.6935   -2.5164   -0.9380 C   0  0  0  0  0  0  0  0  0  0  0  0
    2.3457    2.0528   -1.9802 C   0  0  0  0  0  0  0  0  0  0  0  0
    3.6260    2.5582   -1.6405 C   0  0  0  0  0  0  0  0  0  0  0  0
    4.3737    3.4772   -2.4626 C   0  0  0  0  0  0  0  0  0  0  0  0
    3.9247    3.9848   -3.7057 C   0  0  0  0  0  0  0  0  0  0  0  0
    2.6718    3.4709   -4.0122 C   0  0  0  0  0  0  0  0  0  0  0  0
    1.9214    3.7314   -5.1269 C   0  0  0  0  0  0  0  0  0  0  0  0
    0.7451    3.0339   -5.0572 O   0  0  0  0  0  0  0  0  0  0  0  0
    0.7521    2.3261   -3.8847 C   0  0  0  0  0  0  0  0  0  0  0  0
    1.9219    2.5622   -3.2093 C   0  0  0  0  0  0  0  0  0  0  0  0
    0.9555   -3.2674   -3.6079 H   0  0  0  0  0  0  0  0  0  0  0  0
    2.9813   -3.5548   -2.1523 H   0  0  0  0  0  0  0  0  0  0  0  0
    2.7341   -0.5202   -3.2138 H   0  0  0  0  0  0  0  0  0  0  0  0
    1.1295    2.6239    0.2569 H   0  0  0  0  0  0  0  0  0  0  0  0
   -1.8925   -2.8257   -0.8889 H   0  0  0  0  0  0  0  0  0  0  0  0
   -4.3369   -4.1386    2.6947 H   0  0  0  0  0  0  0  0  0  0  0  0
   -4.3994   -3.0187    4.6871 H   0  0  0  0  0  0  0  0  0  0  0  0
   -4.4547   -1.5452    6.6531 H   0  0  0  0  0  0  0  0  0  0  0  0
   -3.1134    0.5368    6.6929 H   0  0  0  0  0  0  0  0  0  0  0  0
   -1.7028    1.1529    4.7950 H   0  0  0  0  0  0  0  0  0  0  0  0
    0.3070   -3.3614   -0.3937 H   0  0  0  0  0  0  0  0  0  0  0  0
    4.0826    2.2320   -0.7048 H   0  0  0  0  0  0  0  0  0  0  0  0
    5.3511    3.7990   -2.0994 H   0  0  0  0  0  0  0  0  0  0  0  0
    4.4952    4.6734   -4.3122 H   0  0  0  0  0  0  0  0  0  0  0  0
    2.0488    4.3411   -6.0099 H   0  0  0  0  0  0  0  0  0  0  0  0
   -0.1278    1.7262   -3.6985 H   0  0  0  0  0  0  0  0  0  0  0  0
  1  2  1  0
  2  3  2  0
  3  4  1  0
  4  5  2  0
  5  6  1  0
  6  7  1  0
  7  8  1  0
  8  9  2  0
  9 10  1  0
 10 11  2  0
 11 12  1  0
 12 13  1  0
 13 14  2  0
 14 15  1  0
 15 16  2  0
 16 17  1  0
 17 18  2  0
 18 19  1  0
 19 20  2  0
  9 21  1  0
 21 22  1  0
 22 23  2  0
  4 24  1  0
 24 25  2  0
 25 26  1  0
 26 27  2  0
 27 28  1  0
 28 29  2  0
 29 30  1  0
 30 31  1  0
 31 32  2  0
 23  1  1  0
 32 24  1  0
 22  3  1  0
 32 28  1  0
 21  6  2  0
 20  8  1  0
 14 10  1  0
 20 15  1  0
  1 33  1  0
  1 34  1  0
  2 35  1  0
  5 36  1  0
 11 37  1  0
 13 38  1  0
 16 39  1  0
 17 40  1  0
 18 41  1  0
 19 42  1  0
 23 43  1  0
 25 44  1  0
 26 45  1  0
 27 46  1  0
 29 47  1  0
 31 48  1  0
M  END
