
     RDKit          3D

 42 47  0  0  0  0  0  0  0  0999 V2000
   -3.9093    2.3818   -0.0689 C   0  0  0  0  0  0  0  0  0  0  0  0
   -5.2570    1.7524    0.1348 C   0  0  0  0  0  0  0  0  0  0  0  0
   -5.1820    0.4191    0.2437 C   0  0  0  0  0  0  0  0  0  0  0  0
   -3.7787    0.0238    0.1246 C   0  0  0  0  0  0  0  0  0  0  0  0
   -3.0063    1.1766   -0.0515 C   0  0  0  0  0  0  0  0  0  0  0  0
   -1.6173    1.1306   -0.1654 C   0  0  0  0  0  0  0  0  0  0  0  0
   -0.9076    2.3186   -0.3864 C   0  0  0  0  0  0  0  0  0  0  0  0
    0.4764    2.3269   -0.4638 C   0  0  0  0  0  0  0  0  0  0  0  0
    1.1992    1.1663   -0.2186 C   0  0  0  0  0  0  0  0  0  0  0  0
    2.6058    1.2446   -0.2042 C   0  0  0  0  0  0  0  0  0  0  0  0
    3.4011    0.1481    0.1365 C   0  0  0  0  0  0  0  0  0  0  0  0
    2.7556   -1.0265    0.5061 C   0  0  0  0  0  0  0  0  0  0  0  0
    1.3556   -1.1108    0.4765 C   0  0  0  0  0  0  0  0  0  0  0  0
    0.5171   -0.0504    0.0487 C   0  0  0  0  0  0  0  0  0  0  0  0
   -0.9439   -0.1182   -0.0531 C   0  0  0  0  0  0  0  0  0  0  0  0
   -1.7842   -1.3299   -0.0483 C   0  0  0  0  0  0  0  0  0  0  0  0
   -1.2922   -2.6444   -0.2642 C   0  0  0  0  0  0  0  0  0  0  0  0
   -2.0887   -3.7933   -0.1961 C   0  0  0  0  0  0  0  0  0  0  0  0
   -3.4403   -3.6759    0.0604 C   0  0  0  0  0  0  0  0  0  0  0  0
   -3.9931   -2.4080    0.1919 C   0  0  0  0  0  0  0  0  0  0  0  0
   -3.1986   -1.2411    0.1049 C   0  0  0  0  0  0  0  0  0  0  0  0
    4.8639    0.2687    0.1604 C   0  0  0  0  0  0  0  0  0  0  0  0
    5.6390    1.2954    0.6706 C   0  0  0  0  0  0  0  0  0  0  0  0
    7.0359    1.0713    0.4965 C   0  0  0  0  0  0  0  0  0  0  0  0
    7.2881   -0.1172   -0.1489 C   0  0  0  0  0  0  0  0  0  0  0  0
    5.8495   -0.9522   -0.5400 S   0  0  0  0  0  0  0  0  0  0  0  0
   -3.6764    3.0666    0.7520 H   0  0  0  0  0  0  0  0  0  0  0  0
   -3.8675    2.8990   -1.0321 H   0  0  0  0  0  0  0  0  0  0  0  0
   -6.1747    2.3210    0.1842 H   0  0  0  0  0  0  0  0  0  0  0  0
   -6.0088   -0.2557    0.3916 H   0  0  0  0  0  0  0  0  0  0  0  0
   -1.4263    3.2658   -0.5162 H   0  0  0  0  0  0  0  0  0  0  0  0
    0.9816    3.2703   -0.6598 H   0  0  0  0  0  0  0  0  0  0  0  0
    3.0904    2.1871   -0.4554 H   0  0  0  0  0  0  0  0  0  0  0  0
    3.3236   -1.8883    0.8496 H   0  0  0  0  0  0  0  0  0  0  0  0
    0.9295   -2.0281    0.8711 H   0  0  0  0  0  0  0  0  0  0  0  0
   -0.2613   -2.8043   -0.5651 H   0  0  0  0  0  0  0  0  0  0  0  0
   -1.6455   -4.7715   -0.3633 H   0  0  0  0  0  0  0  0  0  0  0  0
   -4.0705   -4.5586    0.1168 H   0  0  0  0  0  0  0  0  0  0  0  0
   -5.0678   -2.3380    0.3400 H   0  0  0  0  0  0  0  0  0  0  0  0
    5.2227    2.1684    1.1588 H   0  0  0  0  0  0  0  0  0  0  0  0
    7.8141    1.7477    0.8279 H   0  0  0  0  0  0  0  0  0  0  0  0
    8.2488   -0.5377   -0.4126 H   0  0  0  0  0  0  0  0  0  0  0  0
  1  2  1  0
  2  3  2  0
  3  4  1  0
  4  5  2  0
  5  6  1  0
  6  7  2  0
  7  8  1  0
  8  9  2  0
  9 10  1  0
 10 11  2  0
 11 12  1  0
 12 13  2  0
 13 14  1  0
 14 15  2  0
 15 16  1  0
 16 17  2  0
 17 18  1  0
 18 19  2  0
 19 20  1  0
 20 21  2  0
 11 22  1  0
 22 23  2  0
 23 24  1  0
 24 25  2  0
 25 26  1  0
  5  1  1  0
 15  6  1  0
 21 16  1  0
 26 22  1  0
 21  4  1  0
 14  9  1  0
  1 27  1  0
  1 28  1  0
  2 29  1  0
  3 30  1  0
  7 31  1  0
  8 32  1  0
 10 33  1  0
 12 34  1  0
 13 35  1  0
 17 36  1  0
 18 37  1  0
 19 38  1  0
 20 39  1  0
 23 40  1  0
 24 41  1  0
 25 42  1  0
M  END
