
     RDKit          3D

 36 41  0  0  0  0  0  0  0  0999 V2000
    4.3711    1.8814    0.3829 C   0  0  0  0  0  0  0  0  0  0  0  0
    5.7152    1.2081    0.2076 C   0  0  0  0  0  0  0  0  0  0  0  0
    5.6149   -0.1026   -0.0647 C   0  0  0  0  0  0  0  0  0  0  0  0
    4.2027   -0.4055   -0.0925 C   0  0  0  0  0  0  0  0  0  0  0  0
    3.4221    0.7274    0.1648 C   0  0  0  0  0  0  0  0  0  0  0  0
    2.0094    0.7132    0.1975 C   0  0  0  0  0  0  0  0  0  0  0  0
    1.2935    1.8736    0.4579 C   0  0  0  0  0  0  0  0  0  0  0  0
   -0.0516    1.9609    0.5101 N   0  0  0  0  0  0  0  0  0  0  0  0
   -0.7772    0.8566    0.3001 C   0  0  0  0  0  0  0  0  0  0  0  0
   -2.1585    0.9922    0.3654 C   0  0  0  0  0  0  0  0  0  0  0  0
   -3.0323   -0.0830    0.1659 C   0  0  0  0  0  0  0  0  0  0  0  0
   -2.4800   -1.3291   -0.1166 C   0  0  0  0  0  0  0  0  0  0  0  0
   -1.0929   -1.4866   -0.1852 C   0  0  0  0  0  0  0  0  0  0  0  0
   -0.2027   -0.4027    0.0207 C   0  0  0  0  0  0  0  0  0  0  0  0
    1.2412   -0.4746   -0.0317 C   0  0  0  0  0  0  0  0  0  0  0  0
    2.0408   -1.6723   -0.3038 C   0  0  0  0  0  0  0  0  0  0  0  0
    1.5898   -2.9157   -0.5543 N   0  0  0  0  0  0  0  0  0  0  0  0
    2.9041   -3.8933   -0.7916 S   0  0  0  0  0  0  0  0  0  0  0  0
    4.1377   -2.8073   -0.5953 N   0  0  0  0  0  0  0  0  0  0  0  0
    3.5615   -1.6241   -0.3321 C   0  0  0  0  0  0  0  0  0  0  0  0
   -4.4899    0.0818    0.2269 C   0  0  0  0  0  0  0  0  0  0  0  0
   -5.4513   -0.4135   -0.6367 C   0  0  0  0  0  0  0  0  0  0  0  0
   -6.7769   -0.0638   -0.2461 C   0  0  0  0  0  0  0  0  0  0  0  0
   -6.7909    0.6817    0.9101 C   0  0  0  0  0  0  0  0  0  0  0  0
   -5.2168    0.9539    1.5164 S   0  0  0  0  0  0  0  0  0  0  0  0
    4.2291    2.6608   -0.3715 H   0  0  0  0  0  0  0  0  0  0  0  0
    4.2737    2.2908    1.3926 H   0  0  0  0  0  0  0  0  0  0  0  0
    6.6522    1.7411    0.2958 H   0  0  0  0  0  0  0  0  0  0  0  0
    6.4081   -0.8133   -0.2337 H   0  0  0  0  0  0  0  0  0  0  0  0
    1.7917    2.8224    0.6434 H   0  0  0  0  0  0  0  0  0  0  0  0
   -2.5593    1.9835    0.5711 H   0  0  0  0  0  0  0  0  0  0  0  0
   -3.1170   -2.1970   -0.2741 H   0  0  0  0  0  0  0  0  0  0  0  0
   -0.7241   -2.4844   -0.4028 H   0  0  0  0  0  0  0  0  0  0  0  0
   -5.2147   -0.9953   -1.5196 H   0  0  0  0  0  0  0  0  0  0  0  0
   -7.6725   -0.3453   -0.7860 H   0  0  0  0  0  0  0  0  0  0  0  0
   -7.6501    1.0801    1.4318 H   0  0  0  0  0  0  0  0  0  0  0  0
  1  2  1  0
  2  3  2  0
  3  4  1  0
  4  5  2  0
  5  6  1  0
  6  7  2  0
  7  8  1  0
  8  9  2  0
  9 10  1  0
 10 11  2  0
 11 12  1  0
 12 13  2  0
 13 14  1  0
 14 15  2  0
 15 16  1  0
 16 17  2  0
 17 18  1  0
 18 19  1  0
 19 20  2  0
 11 21  1  0
 21 22  2  0
 22 23  1  0
 23 24  2  0
 24 25  1  0
  5  1  1  0
 15  6  1  0
 20 16  1  0
 25 21  1  0
 20  4  1  0
 14  9  1  0
  1 26  1  0
  1 27  1  0
  2 28  1  0
  3 29  1  0
  7 30  1  0
 10 31  1  0
 12 32  1  0
 13 33  1  0
 22 34  1  0
 23 35  1  0
 24 36  1  0
M  END
