
     RDKit          3D

 43 49  0  0  0  0  0  0  0  0999 V2000
   -4.4055   -1.1803    1.6732 C   0  0  0  0  0  0  0  0  0  0  0  0
   -5.6899   -0.5722    1.1395 C   0  0  0  0  0  0  0  0  0  0  0  0
   -5.4884    0.3374    0.1700 C   0  0  0  0  0  0  0  0  0  0  0  0
   -4.0623    0.4094   -0.0212 C   0  0  0  0  0  0  0  0  0  0  0  0
   -3.3759   -0.4670    0.8408 C   0  0  0  0  0  0  0  0  0  0  0  0
   -1.9675   -0.6084    0.8747 C   0  0  0  0  0  0  0  0  0  0  0  0
   -1.1059    0.1379    0.0186 C   0  0  0  0  0  0  0  0  0  0  0  0
    0.3524    0.0061    0.0444 C   0  0  0  0  0  0  0  0  0  0  0  0
    1.0558    0.7822    0.9706 C   0  0  0  0  0  0  0  0  0  0  0  0
    2.4542    0.7153    1.0570 C   0  0  0  0  0  0  0  0  0  0  0  0
    3.1565    1.5254    2.0161 C   0  0  0  0  0  0  0  0  0  0  0  0
    2.6185    2.3906    2.8970 N   0  0  0  0  0  0  0  0  0  0  0  0
    3.8769    3.0507    3.7519 S   0  0  0  0  0  0  0  0  0  0  0  0
    5.1648    2.2729    3.0527 N   0  0  0  0  0  0  0  0  0  0  0  0
    4.6525    1.4621    2.1146 C   0  0  0  0  0  0  0  0  0  0  0  0
    5.3945    0.6121    1.2741 C   0  0  0  0  0  0  0  0  0  0  0  0
    4.6460   -0.1562    0.3561 C   0  0  0  0  0  0  0  0  0  0  0  0
    3.2122   -0.1424    0.2109 C   0  0  0  0  0  0  0  0  0  0  0  0
    2.4899   -0.9469   -0.7420 C   0  0  0  0  0  0  0  0  0  0  0  0
    3.1340   -1.8408   -1.6378 C   0  0  0  0  0  0  0  0  0  0  0  0
    2.4364   -2.6225   -2.5612 C   0  0  0  0  0  0  0  0  0  0  0  0
    1.0592   -2.5407   -2.6245 C   0  0  0  0  0  0  0  0  0  0  0  0
    0.3865   -1.6770   -1.7645 C   0  0  0  0  0  0  0  0  0  0  0  0
    1.0643   -0.8691   -0.8181 C   0  0  0  0  0  0  0  0  0  0  0  0
   -1.8034    1.0220   -0.8441 C   0  0  0  0  0  0  0  0  0  0  0  0
   -1.2100    1.8567   -1.7625 C   0  0  0  0  0  0  0  0  0  0  0  0
   -2.3750    2.7778   -2.6322 S   0  0  0  0  0  0  0  0  0  0  0  0
   -3.6912    2.0677   -1.7830 C   0  0  0  0  0  0  0  0  0  0  0  0
   -3.2481    1.1520   -0.8628 C   0  0  0  0  0  0  0  0  0  0  0  0
   -4.2811   -0.9564    2.7364 H   0  0  0  0  0  0  0  0  0  0  0  0
   -4.3822   -2.2591    1.4950 H   0  0  0  0  0  0  0  0  0  0  0  0
   -6.6639   -0.8540    1.5153 H   0  0  0  0  0  0  0  0  0  0  0  0
   -6.2292    0.9068   -0.3652 H   0  0  0  0  0  0  0  0  0  0  0  0
   -1.5281   -1.3142    1.5788 H   0  0  0  0  0  0  0  0  0  0  0  0
    0.5055    1.4525    1.6317 H   0  0  0  0  0  0  0  0  0  0  0  0
    6.4747    0.5534    1.3308 H   0  0  0  0  0  0  0  0  0  0  0  0
    5.2420   -0.8064   -0.2835 H   0  0  0  0  0  0  0  0  0  0  0  0
    4.2141   -1.9538   -1.6400 H   0  0  0  0  0  0  0  0  0  0  0  0
    2.9757   -3.2918   -3.2264 H   0  0  0  0  0  0  0  0  0  0  0  0
    0.5033   -3.1428   -3.3380 H   0  0  0  0  0  0  0  0  0  0  0  0
   -0.6990   -1.6425   -1.8469 H   0  0  0  0  0  0  0  0  0  0  0  0
   -0.1593    1.9865   -1.9837 H   0  0  0  0  0  0  0  0  0  0  0  0
   -4.7041    2.3670   -2.0125 H   0  0  0  0  0  0  0  0  0  0  0  0
  1  2  1  0
  2  3  2  0
  3  4  1  0
  4  5  2  0
  5  6  1  0
  6  7  2  0
  7  8  1  0
  8  9  2  0
  9 10  1  0
 10 11  1  0
 11 12  2  0
 12 13  1  0
 13 14  1  0
 14 15  2  0
 15 16  1  0
 16 17  2  0
 17 18  1  0
 18 19  1  0
 19 20  2  0
 20 21  1  0
 21 22  2  0
 22 23  1  0
 23 24  2  0
  7 25  1  0
 25 26  2  0
 26 27  1  0
 27 28  1  0
 28 29  2  0
  5  1  1  0
 24  8  1  0
 29 25  1  0
 29  4  1  0
 18 10  2  0
 24 19  1  0
 15 11  1  0
  1 30  1  0
  1 31  1  0
  2 32  1  0
  3 33  1  0
  6 34  1  0
  9 35  1  0
 16 36  1  0
 17 37  1  0
 20 38  1  0
 21 39  1  0
 22 40  1  0
 23 41  1  0
 26 42  1  0
 28 43  1  0
M  END
