
     RDKit          3D

 35 39  0  0  0  0  0  0  0  0999 V2000
    5.7223    0.2061    0.1257 C   0  0  0  0  0  0  0  0  0  0  0  0
    5.1622   -1.1826   -0.1793 C   0  0  0  0  0  0  0  0  0  0  0  0
    3.8099   -1.1752   -0.1926 C   0  0  0  0  0  0  0  0  0  0  0  0
    3.3346    0.1370    0.0845 C   0  0  0  0  0  0  0  0  0  0  0  0
    4.4583    0.9795    0.2782 C   0  0  0  0  0  0  0  0  0  0  0  0
    4.1073    2.2689    0.5518 C   0  0  0  0  0  0  0  0  0  0  0  0
    2.3950    2.4293    0.5675 S   0  0  0  0  0  0  0  0  0  0  0  0
    2.1044    0.7410    0.2009 C   0  0  0  0  0  0  0  0  0  0  0  0
    0.7875    0.1886    0.0674 C   0  0  0  0  0  0  0  0  0  0  0  0
   -0.3375    0.9217    0.2124 C   0  0  0  0  0  0  0  0  0  0  0  0
   -1.5106    0.0726    0.0166 C   0  0  0  0  0  0  0  0  0  0  0  0
   -1.0621   -1.2245   -0.2572 C   0  0  0  0  0  0  0  0  0  0  0  0
    0.4336   -1.2591   -0.2478 C   0  0  0  0  0  0  0  0  0  0  0  0
   -1.9441   -2.2626   -0.4905 C   0  0  0  0  0  0  0  0  0  0  0  0
   -3.3114   -1.9843   -0.4461 C   0  0  0  0  0  0  0  0  0  0  0  0
   -3.7919   -0.6839   -0.1719 C   0  0  0  0  0  0  0  0  0  0  0  0
   -5.1710   -0.4224   -0.1313 C   0  0  0  0  0  0  0  0  0  0  0  0
   -5.6518    0.8598    0.1390 C   0  0  0  0  0  0  0  0  0  0  0  0
   -4.7609    1.9015    0.3731 C   0  0  0  0  0  0  0  0  0  0  0  0
   -3.3860    1.6638    0.3376 C   0  0  0  0  0  0  0  0  0  0  0  0
   -2.8790    0.3756    0.0663 C   0  0  0  0  0  0  0  0  0  0  0  0
    6.3077    0.1959    1.0493 H   0  0  0  0  0  0  0  0  0  0  0  0
    6.3270    0.5739   -0.7078 H   0  0  0  0  0  0  0  0  0  0  0  0
    5.7820   -2.0484   -0.3587 H   0  0  0  0  0  0  0  0  0  0  0  0
    3.1882   -2.0368   -0.3848 H   0  0  0  0  0  0  0  0  0  0  0  0
    4.7428    3.1222    0.7424 H   0  0  0  0  0  0  0  0  0  0  0  0
   -0.4165    1.9729    0.4375 H   0  0  0  0  0  0  0  0  0  0  0  0
    0.7992   -1.9326    0.5337 H   0  0  0  0  0  0  0  0  0  0  0  0
    0.8190   -1.5536   -1.2290 H   0  0  0  0  0  0  0  0  0  0  0  0
   -1.5902   -3.2661   -0.7022 H   0  0  0  0  0  0  0  0  0  0  0  0
   -4.0141   -2.7953   -0.6284 H   0  0  0  0  0  0  0  0  0  0  0  0
   -5.8867   -1.2216   -0.3113 H   0  0  0  0  0  0  0  0  0  0  0  0
   -6.7227    1.0432    0.1663 H   0  0  0  0  0  0  0  0  0  0  0  0
   -5.1334    2.9005    0.5837 H   0  0  0  0  0  0  0  0  0  0  0  0
   -2.7112    2.4952    0.5240 H   0  0  0  0  0  0  0  0  0  0  0  0
  1  2  1  0
  2  3  2  0
  3  4  1  0
  4  5  1  0
  5  6  2  0
  6  7  1  0
  7  8  1  0
  8  9  1  0
  9 10  2  0
 10 11  1  0
 11 12  2  0
 12 13  1  0
 12 14  1  0
 14 15  2  0
 15 16  1  0
 16 17  2  0
 17 18  1  0
 18 19  2  0
 19 20  1  0
 20 21  2  0
  5  1  1  0
 13  9  1  0
 21 16  1  0
  8  4  2  0
 21 11  1  0
  1 22  1  0
  1 23  1  0
  2 24  1  0
  3 25  1  0
  6 26  1  0
 10 27  1  0
 13 28  1  0
 13 29  1  0
 14 30  1  0
 15 31  1  0
 17 32  1  0
 18 33  1  0
 19 34  1  0
 20 35  1  0
M  END
