
     RDKit          3D

 44 50  0  0  0  0  0  0  0  0999 V2000
    7.8239   -0.4950   -0.1046 C   0  0  0  0  0  0  0  0  0  0  0  0
    7.1523   -0.2842    1.2545 C   0  0  0  0  0  0  0  0  0  0  0  0
    5.8265   -0.0544    1.1174 C   0  0  0  0  0  0  0  0  0  0  0  0
    5.4818   -0.0816   -0.2609 C   0  0  0  0  0  0  0  0  0  0  0  0
    6.6512   -0.3468   -1.0125 C   0  0  0  0  0  0  0  0  0  0  0  0
    6.4089   -0.3997   -2.3552 C   0  0  0  0  0  0  0  0  0  0  0  0
    4.7373   -0.1197   -2.6736 S   0  0  0  0  0  0  0  0  0  0  0  0
    4.3282    0.0705   -0.9873 C   0  0  0  0  0  0  0  0  0  0  0  0
    3.0059    0.3599   -0.5749 C   0  0  0  0  0  0  0  0  0  0  0  0
    2.6760    1.3174    0.3228 C   0  0  0  0  0  0  0  0  0  0  0  0
    1.2749    1.3460    0.5767 C   0  0  0  0  0  0  0  0  0  0  0  0
    0.4242    2.3716    1.6139 S   0  0  0  0  0  0  0  0  0  0  0  0
   -1.0936    1.6204    1.2100 C   0  0  0  0  0  0  0  0  0  0  0  0
   -2.3602    1.9590    1.7156 C   0  0  0  0  0  0  0  0  0  0  0  0
   -3.4977    1.2527    1.2883 C   0  0  0  0  0  0  0  0  0  0  0  0
   -4.7446    1.6100    1.8070 C   0  0  0  0  0  0  0  0  0  0  0  0
   -5.9017    0.9426    1.4169 C   0  0  0  0  0  0  0  0  0  0  0  0
   -5.8457   -0.1038    0.4948 C   0  0  0  0  0  0  0  0  0  0  0  0
   -7.0319   -0.7582    0.1208 C   0  0  0  0  0  0  0  0  0  0  0  0
   -7.0167   -1.8056   -0.7958 C   0  0  0  0  0  0  0  0  0  0  0  0
   -5.8123   -2.2105   -1.3493 C   0  0  0  0  0  0  0  0  0  0  0  0
   -4.6256   -1.5667   -0.9846 C   0  0  0  0  0  0  0  0  0  0  0  0
   -4.5979   -0.4957   -0.0545 C   0  0  0  0  0  0  0  0  0  0  0  0
   -3.4003    0.1978    0.3518 C   0  0  0  0  0  0  0  0  0  0  0  0
   -2.1023   -0.1120   -0.1340 C   0  0  0  0  0  0  0  0  0  0  0  0
   -0.9419    0.5854    0.2819 C   0  0  0  0  0  0  0  0  0  0  0  0
    0.4187    0.4674   -0.0466 C   0  0  0  0  0  0  0  0  0  0  0  0
    1.4702   -0.6211   -1.1708 Si  0  0  0  0  0  4  0  0  0  0  0  0
    8.2656   -1.4931   -0.1696 H   0  0  0  0  0  0  0  0  0  0  0  0
    8.5807    0.2727   -0.2879 H   0  0  0  0  0  0  0  0  0  0  0  0
    7.6835   -0.3218    2.1939 H   0  0  0  0  0  0  0  0  0  0  0  0
    5.1290    0.1176    1.9250 H   0  0  0  0  0  0  0  0  0  0  0  0
    7.1003   -0.5818   -3.1659 H   0  0  0  0  0  0  0  0  0  0  0  0
    3.3740    1.9920    0.8030 H   0  0  0  0  0  0  0  0  0  0  0  0
   -2.4468    2.7687    2.4360 H   0  0  0  0  0  0  0  0  0  0  0  0
   -4.8325    2.4203    2.5284 H   0  0  0  0  0  0  0  0  0  0  0  0
   -6.8522    1.2532    1.8456 H   0  0  0  0  0  0  0  0  0  0  0  0
   -7.9863   -0.4530    0.5455 H   0  0  0  0  0  0  0  0  0  0  0  0
   -7.9425   -2.3011   -1.0745 H   0  0  0  0  0  0  0  0  0  0  0  0
   -5.7884   -3.0272   -2.0662 H   0  0  0  0  0  0  0  0  0  0  0  0
   -3.7120   -1.9252   -1.4496 H   0  0  0  0  0  0  0  0  0  0  0  0
   -1.9659   -0.9113   -0.8545 H   0  0  0  0  0  0  0  0  0  0  0  0
    1.1792   -0.4139   -2.6134 H   0  0  0  0  0  0  0  0  0  0  0  0
    1.5067   -2.0420   -0.7363 H   0  0  0  0  0  0  0  0  0  0  0  0
  1  2  1  0
  2  3  2  0
  3  4  1  0
  4  5  1  0
  5  6  2  0
  6  7  1  0
  7  8  1  0
  8  9  1  0
  9 10  2  0
 10 11  1  0
 11 12  1  0
 12 13  1  0
 13 14  2  0
 14 15  1  0
 15 16  2  0
 16 17  1  0
 17 18  2  0
 18 19  1  0
 19 20  2  0
 20 21  1  0
 21 22  2  0
 22 23  1  0
 23 24  2  0
 24 25  1  0
 25 26  2  0
 26 27  1  0
 27 28  1  0
  5  1  1  0
 28  9  1  0
  8  4  2  0
 27 11  2  0
 26 13  1  0
 24 15  1  0
 23 18  1  0
  1 29  1  0
  1 30  1  0
  2 31  1  0
  3 32  1  0
  6 33  1  0
 10 34  1  0
 14 35  1  0
 16 36  1  0
 17 37  1  0
 19 38  1  0
 20 39  1  0
 21 40  1  0
 22 41  1  0
 25 42  1  0
 28 43  1  0
 28 44  1  0
M  END
