
     RDKit          3D

 37 42  0  0  0  0  0  0  0  0999 V2000
    6.0526   -0.2486    1.4525 C   0  0  0  0  0  0  0  0  0  0  0  0
    4.8517   -0.2571    2.4008 C   0  0  0  0  0  0  0  0  0  0  0  0
    3.6988   -0.0103    1.7378 C   0  0  0  0  0  0  0  0  0  0  0  0
    3.9762    0.1748    0.3563 C   0  0  0  0  0  0  0  0  0  0  0  0
    5.3745    0.0493    0.1595 C   0  0  0  0  0  0  0  0  0  0  0  0
    5.7420    0.2411   -1.1428 C   0  0  0  0  0  0  0  0  0  0  0  0
    4.3551    0.5802   -2.1128 S   0  0  0  0  0  0  0  0  0  0  0  0
    3.2562    0.4476   -0.7757 C   0  0  0  0  0  0  0  0  0  0  0  0
    1.8388    0.6090   -0.9505 C   0  0  0  0  0  0  0  0  0  0  0  0
    1.1486    1.4032   -1.8568 C   0  0  0  0  0  0  0  0  0  0  0  0
   -0.2211    1.1713   -1.5864 C   0  0  0  0  0  0  0  0  0  0  0  0
   -1.4775    1.5315   -1.9863 N   0  0  0  0  0  0  0  0  0  0  0  0
   -2.3909    0.8472   -1.2101 C   0  0  0  0  0  0  0  0  0  0  0  0
   -3.7892    0.8786   -1.2384 C   0  0  0  0  0  0  0  0  0  0  0  0
   -4.4891    0.0679   -0.3224 C   0  0  0  0  0  0  0  0  0  0  0  0
   -5.8895    0.0545   -0.3001 C   0  0  0  0  0  0  0  0  0  0  0  0
   -6.5628   -0.7511    0.6098 C   0  0  0  0  0  0  0  0  0  0  0  0
   -5.8085   -1.5212    1.4726 C   0  0  0  0  0  0  0  0  0  0  0  0
   -4.4580   -1.5366    1.4832 N   0  0  0  0  0  0  0  0  0  0  0  0
   -3.8085   -0.7560    0.6008 C   0  0  0  0  0  0  0  0  0  0  0  0
   -2.4194   -0.7620    0.5998 C   0  0  0  0  0  0  0  0  0  0  0  0
   -1.7006    0.0384   -0.3035 C   0  0  0  0  0  0  0  0  0  0  0  0
   -0.3295    0.2758   -0.5764 C   0  0  0  0  0  0  0  0  0  0  0  0
    0.9285   -0.0849   -0.1819 N   0  0  0  0  0  0  0  0  0  0  0  0
    6.7619    0.5359    1.7303 H   0  0  0  0  0  0  0  0  0  0  0  0
    6.5451   -1.2247    1.4393 H   0  0  0  0  0  0  0  0  0  0  0  0
    4.9348   -0.4244    3.4644 H   0  0  0  0  0  0  0  0  0  0  0  0
    2.7207    0.0599    2.1910 H   0  0  0  0  0  0  0  0  0  0  0  0
    6.7277    0.2117   -1.5852 H   0  0  0  0  0  0  0  0  0  0  0  0
    1.5775    2.0607   -2.6005 H   0  0  0  0  0  0  0  0  0  0  0  0
   -1.6665    2.1907   -2.7295 H   0  0  0  0  0  0  0  0  0  0  0  0
   -4.3155    1.5105   -1.9472 H   0  0  0  0  0  0  0  0  0  0  0  0
   -6.4612    0.6700   -0.9898 H   0  0  0  0  0  0  0  0  0  0  0  0
   -7.6457   -0.7767    0.6439 H   0  0  0  0  0  0  0  0  0  0  0  0
   -6.2822   -2.1694    2.2043 H   0  0  0  0  0  0  0  0  0  0  0  0
   -1.8941   -1.3950    1.3082 H   0  0  0  0  0  0  0  0  0  0  0  0
    1.1191   -0.7650    0.5417 H   0  0  0  0  0  0  0  0  0  0  0  0
  1  2  1  0
  2  3  2  0
  3  4  1  0
  4  5  1  0
  5  6  2  0
  6  7  1  0
  7  8  1  0
  8  9  1  0
  9 10  2  0
 10 11  1  0
 11 12  1  0
 12 13  1  0
 13 14  2  0
 14 15  1  0
 15 16  2  0
 16 17  1  0
 17 18  2  0
 18 19  1  0
 19 20  2  0
 20 21  1  0
 21 22  2  0
 22 23  1  0
 23 24  1  0
  5  1  1  0
 24  9  1  0
  8  4  2  0
 23 11  2  0
 22 13  1  0
 20 15  1  0
  1 25  1  0
  1 26  1  0
  2 27  1  0
  3 28  1  0
  6 29  1  0
 10 30  1  0
 12 31  1  0
 14 32  1  0
 16 33  1  0
 17 34  1  0
 18 35  1  0
 21 36  1  0
 24 37  1  0
M  END
