
     RDKit          3D

 46 53  0  0  0  0  0  0  0  0999 V2000
   -6.8227    0.6004   -0.3072 C   0  0  0  0  0  0  0  0  0  0  0  0
   -6.0889   -0.0894   -1.4619 C   0  0  0  0  0  0  0  0  0  0  0  0
   -4.7677   -0.2160   -1.2004 C   0  0  0  0  0  0  0  0  0  0  0  0
   -4.4882    0.3367    0.0762 C   0  0  0  0  0  0  0  0  0  0  0  0
   -5.6898    0.8338    0.6332 C   0  0  0  0  0  0  0  0  0  0  0  0
   -5.5025    1.3924    1.8673 C   0  0  0  0  0  0  0  0  0  0  0  0
   -3.8369    1.2988    2.3233 S   0  0  0  0  0  0  0  0  0  0  0  0
   -3.3795    0.4968    0.8580 C   0  0  0  0  0  0  0  0  0  0  0  0
   -1.9957    0.1212    0.6385 C   0  0  0  0  0  0  0  0  0  0  0  0
   -0.9563    1.0671    0.4554 C   0  0  0  0  0  0  0  0  0  0  0  0
    0.4144    0.7231    0.2125 C   0  0  0  0  0  0  0  0  0  0  0  0
    0.8536   -0.6471    0.1318 C   0  0  0  0  0  0  0  0  0  0  0  0
   -0.1734   -1.5902    0.3166 C   0  0  0  0  0  0  0  0  0  0  0  0
   -0.0218   -2.9575    0.2937 C   0  0  0  0  0  0  0  0  0  0  0  0
   -1.5036   -3.7793    0.5731 S   0  0  0  0  0  0  0  0  0  0  0  0
   -2.3698   -2.3088    0.7333 C   0  0  0  0  0  0  0  0  0  0  0  0
   -1.5549   -1.2125    0.5622 C   0  0  0  0  0  0  0  0  0  0  0  0
    2.2569   -0.9030   -0.1212 C   0  0  0  0  0  0  0  0  0  0  0  0
    2.7601   -2.1608   -0.2154 O   0  0  0  0  0  0  0  0  0  0  0  0
    4.0957   -2.0144   -0.4555 C   0  0  0  0  0  0  0  0  0  0  0  0
    5.0218   -3.0350   -0.6245 C   0  0  0  0  0  0  0  0  0  0  0  0
    6.3293   -2.6122   -0.8592 C   0  0  0  0  0  0  0  0  0  0  0  0
    6.6135   -1.2495   -0.9078 C   0  0  0  0  0  0  0  0  0  0  0  0
    5.7196   -0.2463   -0.7450 N   0  0  0  0  0  0  0  0  0  0  0  0
    4.4467   -0.6659   -0.5160 C   0  0  0  0  0  0  0  0  0  0  0  0
    3.2483    0.0418   -0.2983 C   0  0  0  0  0  0  0  0  0  0  0  0
    2.9033    1.4215   -0.2332 C   0  0  0  0  0  0  0  0  0  0  0  0
    3.7385    2.4672   -0.3799 C   0  0  0  0  0  0  0  0  0  0  0  0
    2.8406    4.0832   -0.2126 Si  0  0  0  0  0  4  0  0  0  0  0  0
    1.2573    3.1159    0.0687 C   0  0  0  0  0  0  0  0  0  0  0  0
    1.4707    1.7822    0.0252 C   0  0  0  0  0  0  0  0  0  0  0  0
   -7.2759    1.5383   -0.6397 H   0  0  0  0  0  0  0  0  0  0  0  0
   -7.5795   -0.0612    0.1230 H   0  0  0  0  0  0  0  0  0  0  0  0
   -6.5793   -0.4239   -2.3639 H   0  0  0  0  0  0  0  0  0  0  0  0
   -4.0317   -0.6647   -1.8531 H   0  0  0  0  0  0  0  0  0  0  0  0
   -6.2268    1.8490    2.5272 H   0  0  0  0  0  0  0  0  0  0  0  0
   -1.2373    2.1185    0.4976 H   0  0  0  0  0  0  0  0  0  0  0  0
    0.8679   -3.5486    0.1343 H   0  0  0  0  0  0  0  0  0  0  0  0
   -3.4298   -2.3430    0.9457 H   0  0  0  0  0  0  0  0  0  0  0  0
    4.7407   -4.0785   -0.5757 H   0  0  0  0  0  0  0  0  0  0  0  0
    7.1232   -3.3385   -1.0033 H   0  0  0  0  0  0  0  0  0  0  0  0
    7.6327   -0.9148   -1.0907 H   0  0  0  0  0  0  0  0  0  0  0  0
    4.8002    2.4213   -0.5702 H   0  0  0  0  0  0  0  0  0  0  0  0
    3.2427    4.8482    0.9919 H   0  0  0  0  0  0  0  0  0  0  0  0
    2.7979    4.8560   -1.4771 H   0  0  0  0  0  0  0  0  0  0  0  0
    0.3362    3.6477    0.2379 H   0  0  0  0  0  0  0  0  0  0  0  0
  1  2  1  0
  2  3  2  0
  3  4  1  0
  4  5  1  0
  5  6  2  0
  6  7  1  0
  7  8  1  0
  8  9  1  0
  9 10  2  0
 10 11  1  0
 11 12  2  0
 12 13  1  0
 13 14  2  0
 14 15  1  0
 15 16  1  0
 16 17  2  0
 12 18  1  0
 18 19  1  0
 19 20  1  0
 20 21  2  0
 21 22  1  0
 22 23  2  0
 23 24  1  0
 24 25  2  0
 25 26  1  0
 26 27  1  0
 27 28  2  0
 28 29  1  0
 29 30  1  0
 30 31  2  0
  5  1  1  0
 17  9  1  0
 26 18  2  0
 31 27  1  0
  8  4  2  0
 31 11  1  0
 17 13  1  0
 25 20  1  0
  1 32  1  0
  1 33  1  0
  2 34  1  0
  3 35  1  0
  6 36  1  0
 10 37  1  0
 14 38  1  0
 16 39  1  0
 21 40  1  0
 22 41  1  0
 23 42  1  0
 28 43  1  0
 29 44  1  0
 29 45  1  0
 30 46  1  0
M  END
