
     RDKit          3D

 46 53  0  0  0  0  0  0  0  0999 V2000
   -6.8347    0.7151    0.7189 C   0  0  0  0  0  0  0  0  0  0  0  0
   -5.9064    1.8414    1.1853 C   0  0  0  0  0  0  0  0  0  0  0  0
   -4.6070    1.4742    1.1044 C   0  0  0  0  0  0  0  0  0  0  0  0
   -4.5258    0.1471    0.6092 C   0  0  0  0  0  0  0  0  0  0  0  0
   -5.8344   -0.3328    0.3674 C   0  0  0  0  0  0  0  0  0  0  0  0
   -5.8412   -1.6105   -0.1202 C   0  0  0  0  0  0  0  0  0  0  0  0
   -4.2240   -2.2030   -0.2773 S   0  0  0  0  0  0  0  0  0  0  0  0
   -3.5244   -0.7365    0.3221 C   0  0  0  0  0  0  0  0  0  0  0  0
   -2.0837   -0.6145    0.4386 C   0  0  0  0  0  0  0  0  0  0  0  0
   -1.2228   -0.5556   -0.6750 C   0  0  0  0  0  0  0  0  0  0  0  0
    0.2050   -0.4093   -0.5955 C   0  0  0  0  0  0  0  0  0  0  0  0
    0.9181   -0.2947    0.6566 C   0  0  0  0  0  0  0  0  0  0  0  0
    0.0492   -0.3714    1.7804 C   0  0  0  0  0  0  0  0  0  0  0  0
    0.4005   -0.3319    3.1117 C   0  0  0  0  0  0  0  0  0  0  0  0
   -0.9399   -0.4635    4.1779 S   0  0  0  0  0  0  0  0  0  0  0  0
   -2.0379   -0.5952    2.8783 C   0  0  0  0  0  0  0  0  0  0  0  0
   -1.4009   -0.5242    1.6594 C   0  0  0  0  0  0  0  0  0  0  0  0
    2.3894   -0.1180    0.6257 C   0  0  0  0  0  0  0  0  0  0  0  0
    3.3887    0.0939    1.9897 S   0  0  0  0  0  0  0  0  0  0  0  0
    4.8228    0.2096    1.0745 C   0  0  0  0  0  0  0  0  0  0  0  0
    6.1347    0.3921    1.5381 C   0  0  0  0  0  0  0  0  0  0  0  0
    7.1449    0.4602    0.5878 C   0  0  0  0  0  0  0  0  0  0  0  0
    6.8064    0.3470   -0.7460 C   0  0  0  0  0  0  0  0  0  0  0  0
    5.5595    0.1724   -1.2194 N   0  0  0  0  0  0  0  0  0  0  0  0
    4.5610    0.1023   -0.2894 C   0  0  0  0  0  0  0  0  0  0  0  0
    3.1556   -0.0792   -0.5389 C   0  0  0  0  0  0  0  0  0  0  0  0
    2.4990   -0.2137   -1.8121 C   0  0  0  0  0  0  0  0  0  0  0  0
    3.0862   -0.2097   -3.0265 C   0  0  0  0  0  0  0  0  0  0  0  0
    1.8638   -0.4061   -4.4026 Si  0  0  0  0  0  4  0  0  0  0  0  0
    0.5223   -0.4875   -3.1041 C   0  0  0  0  0  0  0  0  0  0  0  0
    1.0195   -0.3733   -1.8513 C   0  0  0  0  0  0  0  0  0  0  0  0
   -7.4193    1.0282   -0.1505 H   0  0  0  0  0  0  0  0  0  0  0  0
   -7.4936    0.3935    1.5300 H   0  0  0  0  0  0  0  0  0  0  0  0
   -6.2612    2.8013    1.5299 H   0  0  0  0  0  0  0  0  0  0  0  0
   -3.7564    2.0862    1.3711 H   0  0  0  0  0  0  0  0  0  0  0  0
   -6.6818   -2.2316   -0.3958 H   0  0  0  0  0  0  0  0  0  0  0  0
   -1.6970   -0.6204   -1.6528 H   0  0  0  0  0  0  0  0  0  0  0  0
    1.3611   -0.2405    3.5865 H   0  0  0  0  0  0  0  0  0  0  0  0
   -3.0911   -0.7217    3.0900 H   0  0  0  0  0  0  0  0  0  0  0  0
    6.3508    0.4772    2.5979 H   0  0  0  0  0  0  0  0  0  0  0  0
    8.1786    0.6000    0.8850 H   0  0  0  0  0  0  0  0  0  0  0  0
    7.5771    0.3973   -1.5117 H   0  0  0  0  0  0  0  0  0  0  0  0
    4.1380   -0.1073   -3.2407 H   0  0  0  0  0  0  0  0  0  0  0  0
    2.0083   -1.6877   -5.1341 H   0  0  0  0  0  0  0  0  0  0  0  0
    1.7414    0.8032   -5.2519 H   0  0  0  0  0  0  0  0  0  0  0  0
   -0.4983   -0.6174   -3.4209 H   0  0  0  0  0  0  0  0  0  0  0  0
  1  2  1  0
  2  3  2  0
  3  4  1  0
  4  5  1  0
  5  6  2  0
  6  7  1  0
  7  8  1  0
  8  9  1  0
  9 10  2  0
 10 11  1  0
 11 12  2  0
 12 13  1  0
 13 14  2  0
 14 15  1  0
 15 16  1  0
 16 17  2  0
 12 18  1  0
 18 19  1  0
 19 20  1  0
 20 21  2  0
 21 22  1  0
 22 23  2  0
 23 24  1  0
 24 25  2  0
 25 26  1  0
 26 27  1  0
 27 28  2  0
 28 29  1  0
 29 30  1  0
 30 31  2  0
  5  1  1  0
 17  9  1  0
 26 18  2  0
 31 27  1  0
  8  4  2  0
 31 11  1  0
 17 13  1  0
 25 20  1  0
  1 32  1  0
  1 33  1  0
  2 34  1  0
  3 35  1  0
  6 36  1  0
 10 37  1  0
 14 38  1  0
 16 39  1  0
 21 40  1  0
 22 41  1  0
 23 42  1  0
 28 43  1  0
 29 44  1  0
 29 45  1  0
 30 46  1  0
M  END
