
     RDKit          3D

 47 54  0  0  0  0  0  0  0  0999 V2000
    6.6052    1.2511   -0.2840 C   0  0  0  0  0  0  0  0  0  0  0  0
    5.4231    2.1745   -0.5867 C   0  0  0  0  0  0  0  0  0  0  0  0
    4.2442    1.5269   -0.4459 C   0  0  0  0  0  0  0  0  0  0  0  0
    4.4855    0.1827   -0.0559 C   0  0  0  0  0  0  0  0  0  0  0  0
    5.8855   -0.0129    0.0427 C   0  0  0  0  0  0  0  0  0  0  0  0
    6.2126   -1.2904    0.4016 C   0  0  0  0  0  0  0  0  0  0  0  0
    4.7839   -2.2373    0.6107 S   0  0  0  0  0  0  0  0  0  0  0  0
    3.7241   -0.9185    0.2254 C   0  0  0  0  0  0  0  0  0  0  0  0
    2.2929   -1.0511    0.2312 C   0  0  0  0  0  0  0  0  0  0  0  0
    1.5112   -2.1920    0.2734 C   0  0  0  0  0  0  0  0  0  0  0  0
    0.1429   -1.7889    0.2511 C   0  0  0  0  0  0  0  0  0  0  0  0
    0.1609   -0.4067    0.2107 C   0  0  0  0  0  0  0  0  0  0  0  0
    1.4533    0.0302    0.1965 O   0  0  0  0  0  0  0  0  0  0  0  0
   -0.9927    0.3877    0.1553 C   0  0  0  0  0  0  0  0  0  0  0  0
   -0.9980    1.7989    0.1915 C   0  0  0  0  0  0  0  0  0  0  0  0
    0.1046    2.5904    0.4309 C   0  0  0  0  0  0  0  0  0  0  0  0
   -0.2716    4.2625    0.4247 S   0  0  0  0  0  0  0  0  0  0  0  0
   -1.9260    3.9460    0.1161 C   0  0  0  0  0  0  0  0  0  0  0  0
   -2.1858    2.5958    0.0261 C   0  0  0  0  0  0  0  0  0  0  0  0
   -3.4650    2.0564   -0.2537 C   0  0  0  0  0  0  0  0  0  0  0  0
   -4.6255    2.8253   -0.5099 C   0  0  0  0  0  0  0  0  0  0  0  0
   -5.7758    2.1663   -0.8787 C   0  0  0  0  0  0  0  0  0  0  0  0
   -5.8342    0.8371   -1.0392 N   0  0  0  0  0  0  0  0  0  0  0  0
   -4.6985    0.1322   -0.7730 C   0  0  0  0  0  0  0  0  0  0  0  0
   -3.4682    0.6239   -0.2985 C   0  0  0  0  0  0  0  0  0  0  0  0
   -2.2859   -0.2341    0.0365 C   0  0  0  0  0  0  0  0  0  0  0  0
   -2.3150   -1.6739    0.2669 C   0  0  0  0  0  0  0  0  0  0  0  0
   -3.4868   -2.4281    0.5389 C   0  0  0  0  0  0  0  0  0  0  0  0
   -3.4916   -3.8205    0.7029 C   0  0  0  0  0  0  0  0  0  0  0  0
   -2.3067   -4.5321    0.6385 C   0  0  0  0  0  0  0  0  0  0  0  0
   -1.1141   -3.8440    0.4620 C   0  0  0  0  0  0  0  0  0  0  0  0
   -1.1097   -2.4377    0.3126 C   0  0  0  0  0  0  0  0  0  0  0  0
    7.2462    1.1388   -1.1628 H   0  0  0  0  0  0  0  0  0  0  0  0
    7.1820    1.6232    0.5672 H   0  0  0  0  0  0  0  0  0  0  0  0
    5.5333    3.2078   -0.8803 H   0  0  0  0  0  0  0  0  0  0  0  0
    3.2659    1.9543   -0.6126 H   0  0  0  0  0  0  0  0  0  0  0  0
    7.1898   -1.7279    0.5509 H   0  0  0  0  0  0  0  0  0  0  0  0
    1.8850   -3.2051    0.3154 H   0  0  0  0  0  0  0  0  0  0  0  0
    1.1262    2.3055    0.6306 H   0  0  0  0  0  0  0  0  0  0  0  0
   -2.6005    4.7843    0.0221 H   0  0  0  0  0  0  0  0  0  0  0  0
   -4.6316    3.9062   -0.4476 H   0  0  0  0  0  0  0  0  0  0  0  0
   -6.6946    2.7054   -1.0880 H   0  0  0  0  0  0  0  0  0  0  0  0
   -4.8179   -0.9142   -1.0390 H   0  0  0  0  0  0  0  0  0  0  0  0
   -4.4421   -1.9360    0.7016 H   0  0  0  0  0  0  0  0  0  0  0  0
   -4.4277   -4.3380    0.9000 H   0  0  0  0  0  0  0  0  0  0  0  0
   -2.3051   -5.6111    0.7652 H   0  0  0  0  0  0  0  0  0  0  0  0
   -0.1875   -4.4127    0.4664 H   0  0  0  0  0  0  0  0  0  0  0  0
  1  2  1  0
  2  3  2  0
  3  4  1  0
  4  5  1  0
  5  6  2  0
  6  7  1  0
  7  8  1  0
  8  9  1  0
  9 10  2  0
 10 11  1  0
 11 12  2  0
 12 13  1  0
 12 14  1  0
 14 15  1  0
 15 16  2  0
 16 17  1  0
 17 18  1  0
 18 19  2  0
 19 20  1  0
 20 21  2  0
 21 22  1  0
 22 23  2  0
 23 24  1  0
 24 25  2  0
 25 26  1  0
 26 27  1  0
 27 28  2  0
 28 29  1  0
 29 30  2  0
 30 31  1  0
 31 32  2  0
  5  1  1  0
 13  9  1  0
 26 14  2  0
 32 27  1  0
  8  4  2  0
 32 11  1  0
 19 15  1  0
 25 20  1  0
  1 33  1  0
  1 34  1  0
  2 35  1  0
  3 36  1  0
  6 37  1  0
 10 38  1  0
 16 39  1  0
 18 40  1  0
 21 41  1  0
 22 42  1  0
 24 43  1  0
 28 44  1  0
 29 45  1  0
 30 46  1  0
 31 47  1  0
M  END
