
     RDKit          3D

 45 52  0  0  0  0  0  0  0  0999 V2000
    6.8589    0.6394    0.3840 C   0  0  0  0  0  0  0  0  0  0  0  0
    5.9555    1.7380    0.9535 C   0  0  0  0  0  0  0  0  0  0  0  0
    4.6492    1.3991    0.8605 C   0  0  0  0  0  0  0  0  0  0  0  0
    4.5395    0.1184    0.2596 C   0  0  0  0  0  0  0  0  0  0  0  0
    5.8370   -0.3602   -0.0388 C   0  0  0  0  0  0  0  0  0  0  0  0
    5.8167   -1.5931   -0.6300 C   0  0  0  0  0  0  0  0  0  0  0  0
    4.1881   -2.1453   -0.8136 S   0  0  0  0  0  0  0  0  0  0  0  0
    3.5200   -0.7228   -0.0856 C   0  0  0  0  0  0  0  0  0  0  0  0
    2.0831   -0.5893    0.0597 C   0  0  0  0  0  0  0  0  0  0  0  0
    1.2038   -0.4528   -1.0383 C   0  0  0  0  0  0  0  0  0  0  0  0
   -0.2303   -0.2927   -0.9124 C   0  0  0  0  0  0  0  0  0  0  0  0
   -1.1433   -0.1511   -1.9992 C   0  0  0  0  0  0  0  0  0  0  0  0
   -0.7575   -0.1543   -3.3254 C   0  0  0  0  0  0  0  0  0  0  0  0
   -2.0870    0.0363   -4.4096 S   0  0  0  0  0  0  0  0  0  0  0  0
   -3.2200    0.1269   -3.1191 C   0  0  0  0  0  0  0  0  0  0  0  0
   -2.5575    0.0114   -1.9324 C   0  0  0  0  0  0  0  0  0  0  0  0
   -3.1534    0.0389   -0.6362 C   0  0  0  0  0  0  0  0  0  0  0  0
   -4.4819    0.1799   -0.2065 C   0  0  0  0  0  0  0  0  0  0  0  0
   -5.7640    0.3474   -0.7634 C   0  0  0  0  0  0  0  0  0  0  0  0
   -6.8716    0.4488    0.0928 C   0  0  0  0  0  0  0  0  0  0  0  0
   -6.7200    0.3861    1.4787 C   0  0  0  0  0  0  0  0  0  0  0  0
   -5.4591    0.2204    2.0569 C   0  0  0  0  0  0  0  0  0  0  0  0
   -4.3761    0.1225    1.1844 C   0  0  0  0  0  0  0  0  0  0  0  0
   -3.0789   -0.0414    1.5766 O   0  0  0  0  0  0  0  0  0  0  0  0
   -2.3051   -0.0954    0.4465 C   0  0  0  0  0  0  0  0  0  0  0  0
   -0.9057   -0.2560    0.3678 C   0  0  0  0  0  0  0  0  0  0  0  0
   -0.0143   -0.3972    1.4531 C   0  0  0  0  0  0  0  0  0  0  0  0
   -0.3804   -0.4041    2.7805 C   0  0  0  0  0  0  0  0  0  0  0  0
    0.9641   -0.6105    3.8272 S   0  0  0  0  0  0  0  0  0  0  0  0
    2.0607   -0.6985    2.5136 C   0  0  0  0  0  0  0  0  0  0  0  0
    1.4235   -0.5574    1.3009 C   0  0  0  0  0  0  0  0  0  0  0  0
    7.5222    0.2418    1.1570 H   0  0  0  0  0  0  0  0  0  0  0  0
    7.4382    1.0135   -0.4646 H   0  0  0  0  0  0  0  0  0  0  0  0
    6.3306    2.6605    1.3710 H   0  0  0  0  0  0  0  0  0  0  0  0
    3.8125    2.0004    1.1885 H   0  0  0  0  0  0  0  0  0  0  0  0
    6.6435   -2.2024   -0.9671 H   0  0  0  0  0  0  0  0  0  0  0  0
    1.6477   -0.4628   -2.0329 H   0  0  0  0  0  0  0  0  0  0  0  0
    0.2295   -0.2572   -3.7527 H   0  0  0  0  0  0  0  0  0  0  0  0
   -4.2689    0.2560   -3.3338 H   0  0  0  0  0  0  0  0  0  0  0  0
   -5.9172    0.3999   -1.8354 H   0  0  0  0  0  0  0  0  0  0  0  0
   -7.8651    0.5782   -0.3325 H   0  0  0  0  0  0  0  0  0  0  0  0
   -7.5954    0.4671    2.1198 H   0  0  0  0  0  0  0  0  0  0  0  0
   -5.3224    0.1694    3.1304 H   0  0  0  0  0  0  0  0  0  0  0  0
   -1.3609   -0.3050    3.2230 H   0  0  0  0  0  0  0  0  0  0  0  0
    3.1120   -0.8508    2.7166 H   0  0  0  0  0  0  0  0  0  0  0  0
  1  2  1  0
  2  3  2  0
  3  4  1  0
  4  5  1  0
  5  6  2  0
  6  7  1  0
  7  8  1  0
  8  9  1  0
  9 10  2  0
 10 11  1  0
 11 12  1  0
 12 13  2  0
 13 14  1  0
 14 15  1  0
 15 16  2  0
 16 17  1  0
 17 18  1  0
 18 19  2  0
 19 20  1  0
 20 21  2  0
 21 22  1  0
 22 23  2  0
 23 24  1  0
 24 25  1  0
 25 26  1  0
 26 27  1  0
 27 28  2  0
 28 29  1  0
 29 30  1  0
 30 31  2  0
  5  1  1  0
 31  9  1  0
  8  4  2  0
 26 11  2  0
 31 27  1  0
 16 12  1  0
 25 17  2  0
 23 18  1  0
  1 32  1  0
  1 33  1  0
  2 34  1  0
  3 35  1  0
  6 36  1  0
 10 37  1  0
 13 38  1  0
 15 39  1  0
 19 40  1  0
 20 41  1  0
 21 42  1  0
 22 43  1  0
 28 44  1  0
 30 45  1  0
M  END
