
     RDKit          3D

 45 51  0  0  0  0  0  0  0  0999 V2000
    6.9029    1.3736   -0.1639 C   0  0  0  0  0  0  0  0  0  0  0  0
    5.6819    2.2365   -0.4909 C   0  0  0  0  0  0  0  0  0  0  0  0
    4.5505    1.4962   -0.5272 C   0  0  0  0  0  0  0  0  0  0  0  0
    4.8622    0.1394   -0.2412 C   0  0  0  0  0  0  0  0  0  0  0  0
    6.2605    0.0356   -0.0319 C   0  0  0  0  0  0  0  0  0  0  0  0
    6.6612   -1.2462    0.2217 C   0  0  0  0  0  0  0  0  0  0  0  0
    5.3054   -2.3139    0.1943 S   0  0  0  0  0  0  0  0  0  0  0  0
    4.1752   -1.0402   -0.1389 C   0  0  0  0  0  0  0  0  0  0  0  0
    2.7700   -1.2999   -0.2578 C   0  0  0  0  0  0  0  0  0  0  0  0
    2.0989   -2.4219   -0.7059 C   0  0  0  0  0  0  0  0  0  0  0  0
    0.7034   -2.1692   -0.6142 C   0  0  0  0  0  0  0  0  0  0  0  0
   -0.4517   -2.9169   -0.8802 C   0  0  0  0  0  0  0  0  0  0  0  0
   -1.7233   -2.3479   -0.6523 C   0  0  0  0  0  0  0  0  0  0  0  0
   -2.8512   -3.1289   -0.8180 C   0  0  0  0  0  0  0  0  0  0  0  0
   -4.1034   -2.7213   -0.5542 N   0  0  0  0  0  0  0  0  0  0  0  0
   -4.2886   -1.4505   -0.1892 C   0  0  0  0  0  0  0  0  0  0  0  0
   -5.5956   -1.1202    0.1039 C   0  0  0  0  0  0  0  0  0  0  0  0
   -5.9658    0.1650    0.4744 C   0  0  0  0  0  0  0  0  0  0  0  0
   -5.0275    1.1888    0.4697 C   0  0  0  0  0  0  0  0  0  0  0  0
   -5.4571    2.4954    0.7617 C   0  0  0  0  0  0  0  0  0  0  0  0
   -4.5848    3.5732    0.6752 C   0  0  0  0  0  0  0  0  0  0  0  0
   -3.2831    3.3537    0.2628 C   0  0  0  0  0  0  0  0  0  0  0  0
   -2.8495    2.0512   -0.0134 C   0  0  0  0  0  0  0  0  0  0  0  0
   -3.6761    0.9061    0.1368 C   0  0  0  0  0  0  0  0  0  0  0  0
   -3.2582   -0.4823   -0.0870 C   0  0  0  0  0  0  0  0  0  0  0  0
   -1.9026   -1.0126   -0.2209 C   0  0  0  0  0  0  0  0  0  0  0  0
   -0.7120   -0.3117    0.1138 C   0  0  0  0  0  0  0  0  0  0  0  0
    0.5492   -0.8888   -0.1070 C   0  0  0  0  0  0  0  0  0  0  0  0
    1.8114   -0.3917    0.1234 N   0  0  0  0  0  0  0  0  0  0  0  0
    7.3688    1.6965    0.7711 H   0  0  0  0  0  0  0  0  0  0  0  0
    7.6271    1.3985   -0.9828 H   0  0  0  0  0  0  0  0  0  0  0  0
    5.7392    3.2975   -0.6838 H   0  0  0  0  0  0  0  0  0  0  0  0
    3.5665    1.8734   -0.7643 H   0  0  0  0  0  0  0  0  0  0  0  0
    7.6552   -1.6256    0.4123 H   0  0  0  0  0  0  0  0  0  0  0  0
    2.5612   -3.3333   -1.0627 H   0  0  0  0  0  0  0  0  0  0  0  0
   -0.3522   -3.9400   -1.2333 H   0  0  0  0  0  0  0  0  0  0  0  0
   -2.7821   -4.1646   -1.1419 H   0  0  0  0  0  0  0  0  0  0  0  0
   -6.3586   -1.8948    0.0524 H   0  0  0  0  0  0  0  0  0  0  0  0
   -7.0093    0.3587    0.7124 H   0  0  0  0  0  0  0  0  0  0  0  0
   -6.4920    2.6870    1.0395 H   0  0  0  0  0  0  0  0  0  0  0  0
   -4.9327    4.5793    0.8914 H   0  0  0  0  0  0  0  0  0  0  0  0
   -2.6025    4.1913    0.1340 H   0  0  0  0  0  0  0  0  0  0  0  0
   -1.8491    1.9624   -0.4230 H   0  0  0  0  0  0  0  0  0  0  0  0
   -0.7478    0.6526    0.6041 H   0  0  0  0  0  0  0  0  0  0  0  0
    2.0063    0.5103    0.5324 H   0  0  0  0  0  0  0  0  0  0  0  0
  1  2  1  0
  2  3  2  0
  3  4  1  0
  4  5  1  0
  5  6  2  0
  6  7  1  0
  7  8  1  0
  8  9  1  0
  9 10  2  0
 10 11  1  0
 11 12  2  0
 12 13  1  0
 13 14  2  0
 14 15  1  0
 15 16  2  0
 16 17  1  0
 17 18  2  0
 18 19  1  0
 19 20  2  0
 20 21  1  0
 21 22  2  0
 22 23  1  0
 23 24  2  0
 24 25  1  0
 25 26  2  0
 26 27  1  0
 27 28  2  0
 28 29  1  0
  5  1  1  0
 29  9  1  0
  8  4  2  0
 28 11  1  0
 26 13  1  0
 25 16  1  0
 24 19  1  0
  1 30  1  0
  1 31  1  0
  2 32  1  0
  3 33  1  0
  6 34  1  0
 10 35  1  0
 12 36  1  0
 14 37  1  0
 17 38  1  0
 18 39  1  0
 20 40  1  0
 21 41  1  0
 22 42  1  0
 23 43  1  0
 27 44  1  0
 29 45  1  0
M  END
