
     RDKit          3D

 46 52  0  0  0  0  0  0  0  0999 V2000
    7.9384    0.3796    0.3245 C   0  0  0  0  0  0  0  0  0  0  0  0
    7.1499    1.6661    0.5755 C   0  0  0  0  0  0  0  0  0  0  0  0
    5.8177    1.4490    0.4916 C   0  0  0  0  0  0  0  0  0  0  0  0
    5.5763    0.0806    0.1947 C   0  0  0  0  0  0  0  0  0  0  0  0
    6.8238   -0.5820    0.0903 C   0  0  0  0  0  0  0  0  0  0  0  0
    6.6882   -1.9105   -0.1956 C   0  0  0  0  0  0  0  0  0  0  0  0
    5.0198   -2.3245   -0.3335 S   0  0  0  0  0  0  0  0  0  0  0  0
    4.4690   -0.7062    0.0048 C   0  0  0  0  0  0  0  0  0  0  0  0
    3.0377   -0.3712    0.0280 C   0  0  0  0  0  0  0  0  0  0  0  0
    2.0299   -1.2994    0.2551 C   0  0  0  0  0  0  0  0  0  0  0  0
    0.6877   -0.8860    0.2581 C   0  0  0  0  0  0  0  0  0  0  0  0
   -0.3237   -1.8083    0.5021 C   0  0  0  0  0  0  0  0  0  0  0  0
   -1.6628   -1.4154    0.4884 C   0  0  0  0  0  0  0  0  0  0  0  0
   -2.0754   -0.0937    0.2122 C   0  0  0  0  0  0  0  0  0  0  0  0
   -1.0369    0.8712    0.0497 C   0  0  0  0  0  0  0  0  0  0  0  0
   -1.4123    2.2261   -0.0704 C   0  0  0  0  0  0  0  0  0  0  0  0
   -2.7382    2.6413    0.0108 C   0  0  0  0  0  0  0  0  0  0  0  0
   -3.7602    1.7055    0.1341 C   0  0  0  0  0  0  0  0  0  0  0  0
   -5.1374    2.2210    0.3135 C   0  0  0  0  0  0  0  0  0  0  0  0
   -6.1928    1.4011    0.4193 C   0  0  0  0  0  0  0  0  0  0  0  0
   -6.0058   -0.0198    0.2667 C   0  0  0  0  0  0  0  0  0  0  0  0
   -7.0302   -0.8905    0.1911 C   0  0  0  0  0  0  0  0  0  0  0  0
   -6.4259   -2.5952   -0.2384 Si  0  0  0  0  0  4  0  0  0  0  0  0
   -4.6890   -1.8939   -0.2971 C   0  0  0  0  0  0  0  0  0  0  0  0
   -4.6487   -0.5933    0.0692 C   0  0  0  0  0  0  0  0  0  0  0  0
   -3.4520    0.3162    0.1419 C   0  0  0  0  0  0  0  0  0  0  0  0
    0.3491    0.4611    0.0381 C   0  0  0  0  0  0  0  0  0  0  0  0
    1.4548    1.3055   -0.1719 C   0  0  0  0  0  0  0  0  0  0  0  0
    2.7601    0.9327   -0.1792 N   0  0  0  0  0  0  0  0  0  0  0  0
    8.5797    0.4815   -0.5554 H   0  0  0  0  0  0  0  0  0  0  0  0
    8.5315    0.1091    1.2024 H   0  0  0  0  0  0  0  0  0  0  0  0
    7.6115    2.6187    0.7874 H   0  0  0  0  0  0  0  0  0  0  0  0
    5.0428    2.1918    0.6226 H   0  0  0  0  0  0  0  0  0  0  0  0
    7.4553   -2.6590   -0.3350 H   0  0  0  0  0  0  0  0  0  0  0  0
    2.2730   -2.3406    0.4414 H   0  0  0  0  0  0  0  0  0  0  0  0
   -0.0892   -2.8492    0.7168 H   0  0  0  0  0  0  0  0  0  0  0  0
   -2.3858   -2.1776    0.7588 H   0  0  0  0  0  0  0  0  0  0  0  0
   -0.6685    3.0108   -0.1799 H   0  0  0  0  0  0  0  0  0  0  0  0
   -2.9580    3.7060   -0.0234 H   0  0  0  0  0  0  0  0  0  0  0  0
   -5.2767    3.2943    0.3932 H   0  0  0  0  0  0  0  0  0  0  0  0
   -7.1926    1.7958    0.5645 H   0  0  0  0  0  0  0  0  0  0  0  0
   -8.0825   -0.6685    0.2707 H   0  0  0  0  0  0  0  0  0  0  0  0
   -6.8942   -3.0522   -1.5689 H   0  0  0  0  0  0  0  0  0  0  0  0
   -6.6008   -3.5642    0.8704 H   0  0  0  0  0  0  0  0  0  0  0  0
   -3.8881   -2.5320   -0.6256 H   0  0  0  0  0  0  0  0  0  0  0  0
    1.3316    2.3677   -0.3593 H   0  0  0  0  0  0  0  0  0  0  0  0
  1  2  1  0
  2  3  2  0
  3  4  1  0
  4  5  1  0
  5  6  2  0
  6  7  1  0
  7  8  1  0
  8  9  1  0
  9 10  2  0
 10 11  1  0
 11 12  2  0
 12 13  1  0
 13 14  2  0
 14 15  1  0
 15 16  1  0
 16 17  2  0
 17 18  1  0
 18 19  1  0
 19 20  2  0
 20 21  1  0
 21 22  2  0
 22 23  1  0
 23 24  1  0
 24 25  2  0
 25 26  1  0
 15 27  2  0
 27 28  1  0
 28 29  2  0
  5  1  1  0
 29  9  1  0
  8  4  2  0
 27 11  1  0
 26 14  1  0
 26 18  2  0
 25 21  1  0
  1 30  1  0
  1 31  1  0
  2 32  1  0
  3 33  1  0
  6 34  1  0
 10 35  1  0
 12 36  1  0
 13 37  1  0
 16 38  1  0
 17 39  1  0
 19 40  1  0
 20 41  1  0
 22 42  1  0
 23 43  1  0
 23 44  1  0
 24 45  1  0
 28 46  1  0
M  END
