
     RDKit          3D

 40 47  0  0  0  0  0  0  0  0999 V2000
    6.7489    0.9189   -0.4325 C   0  0  0  0  0  0  0  0  0  0  0  0
    5.9499    0.4776   -1.6615 C   0  0  0  0  0  0  0  0  0  0  0  0
    4.6510    0.2615   -1.3522 C   0  0  0  0  0  0  0  0  0  0  0  0
    4.4464    0.5180    0.0291 C   0  0  0  0  0  0  0  0  0  0  0  0
    5.6776    0.9152    0.6040 C   0  0  0  0  0  0  0  0  0  0  0  0
    5.5695    1.1884    1.9389 C   0  0  0  0  0  0  0  0  0  0  0  0
    3.9421    0.9563    2.4691 S   0  0  0  0  0  0  0  0  0  0  0  0
    3.3868    0.4839    0.8929 C   0  0  0  0  0  0  0  0  0  0  0  0
    1.9866    0.1395    0.6892 C   0  0  0  0  0  0  0  0  0  0  0  0
    0.9357    1.0024    1.0268 C   0  0  0  0  0  0  0  0  0  0  0  0
   -0.4148    0.6408    0.8080 C   0  0  0  0  0  0  0  0  0  0  0  0
   -1.7722    1.6192    1.2083 S   0  0  0  0  0  0  0  0  0  0  0  0
   -2.9176    0.4705    0.6228 C   0  0  0  0  0  0  0  0  0  0  0  0
   -4.3200    0.5794    0.6230 C   0  0  0  0  0  0  0  0  0  0  0  0
   -5.3746    1.9730    1.2702 Si  0  0  0  0  0  4  0  0  0  0  0  0
   -6.8998    0.9996    0.7268 C   0  0  0  0  0  0  0  0  0  0  0  0
   -6.5969   -0.1804    0.1538 C   0  0  0  0  0  0  0  0  0  0  0  0
   -5.1541   -0.4220    0.0924 C   0  0  0  0  0  0  0  0  0  0  0  0
   -4.5333   -1.5479   -0.4592 C   0  0  0  0  0  0  0  0  0  0  0  0
   -5.1473   -2.6035   -1.0319 N   0  0  0  0  0  0  0  0  0  0  0  0
   -3.9453   -3.6413   -1.5382 S   0  0  0  0  0  0  0  0  0  0  0  0
   -2.5990   -2.7942   -1.0552 N   0  0  0  0  0  0  0  0  0  0  0  0
   -3.0748   -1.7055   -0.4788 C   0  0  0  0  0  0  0  0  0  0  0  0
   -2.2476   -0.6460    0.1101 C   0  0  0  0  0  0  0  0  0  0  0  0
   -0.8337   -0.5565    0.2444 C   0  0  0  0  0  0  0  0  0  0  0  0
    0.2201   -1.4996   -0.0969 C   0  0  0  0  0  0  0  0  0  0  0  0
    0.0035   -2.7062   -0.5872 N   0  0  0  0  0  0  0  0  0  0  0  0
    1.5156   -3.3603   -0.7859 S   0  0  0  0  0  0  0  0  0  0  0  0
    2.4506   -2.1017   -0.2338 N   0  0  0  0  0  0  0  0  0  0  0  0
    1.6142   -1.1078    0.1382 C   0  0  0  0  0  0  0  0  0  0  0  0
    7.5395    0.1991   -0.2034 H   0  0  0  0  0  0  0  0  0  0  0  0
    7.1694    1.9175   -0.5799 H   0  0  0  0  0  0  0  0  0  0  0  0
    6.3850    0.3510   -2.6415 H   0  0  0  0  0  0  0  0  0  0  0  0
    3.8838   -0.0668   -2.0392 H   0  0  0  0  0  0  0  0  0  0  0  0
    6.3338    1.5070    2.6336 H   0  0  0  0  0  0  0  0  0  0  0  0
    1.1613    1.9758    1.4621 H   0  0  0  0  0  0  0  0  0  0  0  0
   -5.2221    3.2271    0.4929 H   0  0  0  0  0  0  0  0  0  0  0  0
   -5.3131    2.1126    2.7457 H   0  0  0  0  0  0  0  0  0  0  0  0
   -7.8904    1.3988    0.8844 H   0  0  0  0  0  0  0  0  0  0  0  0
   -7.3151   -0.8935   -0.2298 H   0  0  0  0  0  0  0  0  0  0  0  0
  1  2  1  0
  2  3  2  0
  3  4  1  0
  4  5  1  0
  5  6  2  0
  6  7  1  0
  7  8  1  0
  8  9  1  0
  9 10  2  0
 10 11  1  0
 11 12  1  0
 12 13  1  0
 13 14  1  0
 14 15  1  0
 15 16  1  0
 16 17  2  0
 17 18  1  0
 18 19  1  0
 19 20  2  0
 20 21  1  0
 21 22  1  0
 22 23  2  0
 23 24  1  0
 24 25  1  0
 25 26  1  0
 26 27  2  0
 27 28  1  0
 28 29  1  0
 29 30  2  0
  5  1  1  0
 30  9  1  0
  8  4  2  0
 25 11  2  0
 30 26  1  0
 24 13  2  0
 18 14  2  0
 23 19  1  0
  1 31  1  0
  1 32  1  0
  2 33  1  0
  3 34  1  0
  6 35  1  0
 10 36  1  0
 15 37  1  0
 15 38  1  0
 16 39  1  0
 17 40  1  0
M  END
