
     RDKit          3D

 46 52  0  0  0  0  0  0  0  0999 V2000
    7.1599    0.2897   -0.0817 C   0  0  0  0  0  0  0  0  0  0  0  0
    6.4096    1.5766   -0.4375 C   0  0  0  0  0  0  0  0  0  0  0  0
    5.0775    1.4379   -0.2482 C   0  0  0  0  0  0  0  0  0  0  0  0
    4.8038    0.1284    0.2268 C   0  0  0  0  0  0  0  0  0  0  0  0
    6.0237   -0.5815    0.3324 C   0  0  0  0  0  0  0  0  0  0  0  0
    5.8476   -1.8619    0.7778 C   0  0  0  0  0  0  0  0  0  0  0  0
    4.1720   -2.1740    1.0623 S   0  0  0  0  0  0  0  0  0  0  0  0
    3.6873   -0.5785    0.5795 C   0  0  0  0  0  0  0  0  0  0  0  0
    2.2789   -0.1843    0.6232 C   0  0  0  0  0  0  0  0  0  0  0  0
    1.8931    0.9600    1.3024 C   0  0  0  0  0  0  0  0  0  0  0  0
    0.5495    1.3300    1.3248 C   0  0  0  0  0  0  0  0  0  0  0  0
   -0.4660    0.5839    0.6748 C   0  0  0  0  0  0  0  0  0  0  0  0
   -0.0980   -0.5881   -0.0259 C   0  0  0  0  0  0  0  0  0  0  0  0
    1.2876   -0.9340   -0.0286 C   0  0  0  0  0  0  0  0  0  0  0  0
   -1.1084   -1.3558   -0.6872 C   0  0  0  0  0  0  0  0  0  0  0  0
   -0.7970   -2.5465   -1.4036 C   0  0  0  0  0  0  0  0  0  0  0  0
   -1.7541   -3.3154   -2.0583 C   0  0  0  0  0  0  0  0  0  0  0  0
   -3.0687   -2.9160   -2.0181 C   0  0  0  0  0  0  0  0  0  0  0  0
   -3.4087   -1.7542   -1.3231 C   0  0  0  0  0  0  0  0  0  0  0  0
   -2.4681   -0.9347   -0.6377 C   0  0  0  0  0  0  0  0  0  0  0  0
   -2.8236    0.2738    0.0874 C   0  0  0  0  0  0  0  0  0  0  0  0
   -4.1261    0.8362    0.2387 C   0  0  0  0  0  0  0  0  0  0  0  0
   -5.4702    0.3846   -0.2737 C   0  0  0  0  0  0  0  0  0  0  0  0
   -6.4007    1.4430    0.2604 C   0  0  0  0  0  0  0  0  0  0  0  0
   -5.7550    2.3754    0.9704 C   0  0  0  0  0  0  0  0  0  0  0  0
   -4.3525    2.0137    0.9651 C   0  0  0  0  0  0  0  0  0  0  0  0
   -3.2970    2.6445    1.5466 C   0  0  0  0  0  0  0  0  0  0  0  0
   -2.0488    2.1607    1.4368 N   0  0  0  0  0  0  0  0  0  0  0  0
   -1.7999    1.0175    0.7376 C   0  0  0  0  0  0  0  0  0  0  0  0
    7.8611    0.4627    0.7394 H   0  0  0  0  0  0  0  0  0  0  0  0
    7.6822   -0.1100   -0.9553 H   0  0  0  0  0  0  0  0  0  0  0  0
    6.8971    2.4704   -0.7972 H   0  0  0  0  0  0  0  0  0  0  0  0
    4.3291    2.1959   -0.4329 H   0  0  0  0  0  0  0  0  0  0  0  0
    6.5866   -2.6304    0.9551 H   0  0  0  0  0  0  0  0  0  0  0  0
    2.6221    1.5707    1.8291 H   0  0  0  0  0  0  0  0  0  0  0  0
    0.2900    2.2354    1.8746 H   0  0  0  0  0  0  0  0  0  0  0  0
    1.6289   -1.8146   -0.5652 H   0  0  0  0  0  0  0  0  0  0  0  0
    0.2224   -2.9154   -1.4701 H   0  0  0  0  0  0  0  0  0  0  0  0
   -1.4644   -4.2165   -2.5911 H   0  0  0  0  0  0  0  0  0  0  0  0
   -3.8365   -3.4978   -2.5206 H   0  0  0  0  0  0  0  0  0  0  0  0
   -4.4617   -1.5146   -1.3417 H   0  0  0  0  0  0  0  0  0  0  0  0
   -5.7522   -0.5877    0.1406 H   0  0  0  0  0  0  0  0  0  0  0  0
   -5.5059    0.3898   -1.3670 H   0  0  0  0  0  0  0  0  0  0  0  0
   -7.4669    1.4360    0.0819 H   0  0  0  0  0  0  0  0  0  0  0  0
   -6.1747    3.2382    1.4614 H   0  0  0  0  0  0  0  0  0  0  0  0
   -3.4051    3.5570    2.1207 H   0  0  0  0  0  0  0  0  0  0  0  0
  1  2  1  0
  2  3  2  0
  3  4  1  0
  4  5  1  0
  5  6  2  0
  6  7  1  0
  7  8  1  0
  8  9  1  0
  9 10  2  0
 10 11  1  0
 11 12  2  0
 12 13  1  0
 13 14  2  0
 13 15  1  0
 15 16  2  0
 16 17  1  0
 17 18  2  0
 18 19  1  0
 19 20  2  0
 20 21  1  0
 21 22  2  0
 22 23  1  0
 23 24  1  0
 24 25  2  0
 25 26  1  0
 26 27  2  0
 27 28  1  0
 28 29  2  0
  5  1  1  0
 14  9  1  0
 20 15  1  0
 29 21  1  0
  8  4  2  0
 29 12  1  0
 26 22  1  0
  1 30  1  0
  1 31  1  0
  2 32  1  0
  3 33  1  0
  6 34  1  0
 10 35  1  0
 11 36  1  0
 14 37  1  0
 16 38  1  0
 17 39  1  0
 18 40  1  0
 19 41  1  0
 23 42  1  0
 23 43  1  0
 24 44  1  0
 25 45  1  0
 27 46  1  0
M  END
