
     RDKit          3D

 43 49  0  0  0  0  0  0  0  0999 V2000
    6.9097    1.6628    0.0076 C   0  0  0  0  0  0  0  0  0  0  0  0
    5.7873    2.6714   -0.2520 C   0  0  0  0  0  0  0  0  0  0  0  0
    4.5757    2.0701   -0.2535 C   0  0  0  0  0  0  0  0  0  0  0  0
    4.7392    0.6809   -0.0092 C   0  0  0  0  0  0  0  0  0  0  0  0
    6.1192    0.4068    0.1464 C   0  0  0  0  0  0  0  0  0  0  0  0
    6.3677   -0.9171    0.3782 C   0  0  0  0  0  0  0  0  0  0  0  0
    4.8893   -1.8103    0.4019 S   0  0  0  0  0  0  0  0  0  0  0  0
    3.9147   -0.4060    0.0953 C   0  0  0  0  0  0  0  0  0  0  0  0
    2.4574   -0.5151    0.0161 C   0  0  0  0  0  0  0  0  0  0  0  0
    1.8397   -1.4584   -0.7971 C   0  0  0  0  0  0  0  0  0  0  0  0
    0.4439   -1.5284   -0.8598 C   0  0  0  0  0  0  0  0  0  0  0  0
   -0.3921   -0.6589   -0.1153 C   0  0  0  0  0  0  0  0  0  0  0  0
    0.2555    0.2941    0.7005 C   0  0  0  0  0  0  0  0  0  0  0  0
    1.6421    0.3487    0.7525 C   0  0  0  0  0  0  0  0  0  0  0  0
   -0.3995    1.1811    1.4526 N   0  0  0  0  0  0  0  0  0  0  0  0
   -1.7503    1.1715    1.4403 C   0  0  0  0  0  0  0  0  0  0  0  0
   -2.5588    0.3093    0.7036 C   0  0  0  0  0  0  0  0  0  0  0  0
   -4.0058    0.3889    0.7662 C   0  0  0  0  0  0  0  0  0  0  0  0
   -5.1213    1.5792    1.7745 Si  0  0  0  0  0  4  0  0  0  0  0  0
   -6.6391    0.7365    1.0527 C   0  0  0  0  0  0  0  0  0  0  0  0
   -6.3400   -0.2630    0.2041 C   0  0  0  0  0  0  0  0  0  0  0  0
   -4.9040   -0.4509    0.0493 C   0  0  0  0  0  0  0  0  0  0  0  0
   -4.2285   -1.3687   -0.7266 C   0  0  0  0  0  0  0  0  0  0  0  0
   -4.7733   -2.3257   -1.5385 C   0  0  0  0  0  0  0  0  0  0  0  0
   -3.7733   -3.0332   -2.1321 O   0  0  0  0  0  0  0  0  0  0  0  0
   -2.5855   -2.5177   -1.6903 C   0  0  0  0  0  0  0  0  0  0  0  0
   -2.7977   -1.4785   -0.8150 C   0  0  0  0  0  0  0  0  0  0  0  0
   -1.8479   -0.6503   -0.1104 C   0  0  0  0  0  0  0  0  0  0  0  0
    7.4488    1.9086    0.9266 H   0  0  0  0  0  0  0  0  0  0  0  0
    7.5975    1.6193   -0.8414 H   0  0  0  0  0  0  0  0  0  0  0  0
    5.9589    3.7251   -0.4141 H   0  0  0  0  0  0  0  0  0  0  0  0
    3.6268    2.5611   -0.4185 H   0  0  0  0  0  0  0  0  0  0  0  0
    7.3134   -1.4164    0.5353 H   0  0  0  0  0  0  0  0  0  0  0  0
    2.4311   -2.1443   -1.4003 H   0  0  0  0  0  0  0  0  0  0  0  0
    0.0352   -2.2841   -1.5144 H   0  0  0  0  0  0  0  0  0  0  0  0
    2.0986    1.0916    1.4049 H   0  0  0  0  0  0  0  0  0  0  0  0
   -2.1694    1.9354    2.0898 H   0  0  0  0  0  0  0  0  0  0  0  0
   -4.9823    1.3566    3.2340 H   0  0  0  0  0  0  0  0  0  0  0  0
   -4.9754    2.9833    1.3197 H   0  0  0  0  0  0  0  0  0  0  0  0
   -7.6306    1.0632    1.3273 H   0  0  0  0  0  0  0  0  0  0  0  0
   -7.0699   -0.8695   -0.3136 H   0  0  0  0  0  0  0  0  0  0  0  0
   -5.7775   -2.6286   -1.7982 H   0  0  0  0  0  0  0  0  0  0  0  0
   -1.7295   -3.0205   -2.1082 H   0  0  0  0  0  0  0  0  0  0  0  0
  1  2  1  0
  2  3  2  0
  3  4  1  0
  4  5  1  0
  5  6  2  0
  6  7  1  0
  7  8  1  0
  8  9  1  0
  9 10  2  0
 10 11  1  0
 11 12  2  0
 12 13  1  0
 13 14  2  0
 13 15  1  0
 15 16  2  0
 16 17  1  0
 17 18  1  0
 18 19  1  0
 19 20  1  0
 20 21  2  0
 21 22  1  0
 22 23  1  0
 23 24  2  0
 24 25  1  0
 25 26  1  0
 26 27  2  0
 27 28  1  0
  5  1  1  0
 14  9  1  0
 28 17  2  0
  8  4  2  0
 28 12  1  0
 22 18  2  0
 27 23  1  0
  1 29  1  0
  1 30  1  0
  2 31  1  0
  3 32  1  0
  6 33  1  0
 10 34  1  0
 11 35  1  0
 14 36  1  0
 16 37  1  0
 19 38  1  0
 19 39  1  0
 20 40  1  0
 21 41  1  0
 24 42  1  0
 26 43  1  0
M  END
