
     RDKit          3D

 42 48  0  0  0  0  0  0  0  0999 V2000
   -6.6397    0.4194    0.9609 C   0  0  0  0  0  0  0  0  0  0  0  0
   -5.7320   -0.4742    1.8112 C   0  0  0  0  0  0  0  0  0  0  0  0
   -4.4301   -0.3068    1.4846 C   0  0  0  0  0  0  0  0  0  0  0  0
   -4.3257    0.6536    0.4440 C   0  0  0  0  0  0  0  0  0  0  0  0
   -5.6249    1.1084    0.1139 C   0  0  0  0  0  0  0  0  0  0  0  0
   -5.6146    2.0499   -0.8768 C   0  0  0  0  0  0  0  0  0  0  0  0
   -3.9954    2.3629   -1.3906 S   0  0  0  0  0  0  0  0  0  0  0  0
   -3.3102    1.2262   -0.2717 C   0  0  0  0  0  0  0  0  0  0  0  0
   -1.8679    1.0014   -0.2329 C   0  0  0  0  0  0  0  0  0  0  0  0
   -0.9540    2.0431   -0.1414 C   0  0  0  0  0  0  0  0  0  0  0  0
    0.3992    1.8988   -0.0859 N   0  0  0  0  0  0  0  0  0  0  0  0
    0.9478    0.6647   -0.1207 C   0  0  0  0  0  0  0  0  0  0  0  0
    0.0630   -0.4553   -0.2142 C   0  0  0  0  0  0  0  0  0  0  0  0
   -1.3384   -0.2823   -0.2685 C   0  0  0  0  0  0  0  0  0  0  0  0
    0.7460   -1.6893   -0.2438 C   0  0  0  0  0  0  0  0  0  0  0  0
    0.2032   -2.9488   -0.3310 C   0  0  0  0  0  0  0  0  0  0  0  0
    1.2509   -3.8442   -0.3290 N   0  0  0  0  0  0  0  0  0  0  0  0
    2.4495   -3.1698   -0.2402 C   0  0  0  0  0  0  0  0  0  0  0  0
    2.1592   -1.8277   -0.1868 C   0  0  0  0  0  0  0  0  0  0  0  0
    3.0661   -0.7514   -0.0933 C   0  0  0  0  0  0  0  0  0  0  0  0
    4.4777   -0.8683   -0.0351 C   0  0  0  0  0  0  0  0  0  0  0  0
    5.2721    0.2938    0.0572 C   0  0  0  0  0  0  0  0  0  0  0  0
    6.6979    0.4453    0.1289 C   0  0  0  0  0  0  0  0  0  0  0  0
    7.0925    1.7598    0.2104 C   0  0  0  0  0  0  0  0  0  0  0  0
    5.7625    2.8256    0.2020 S   0  0  0  0  0  0  0  0  0  0  0  0
    4.6282    1.5306    0.0879 C   0  0  0  0  0  0  0  0  0  0  0  0
    3.2199    1.6433    0.0295 C   0  0  0  0  0  0  0  0  0  0  0  0
    2.3897    0.5096   -0.0629 C   0  0  0  0  0  0  0  0  0  0  0  0
   -7.1913    1.1238    1.5896 H   0  0  0  0  0  0  0  0  0  0  0  0
   -7.3287   -0.1830    0.3626 H   0  0  0  0  0  0  0  0  0  0  0  0
   -6.1012   -1.1412    2.5760 H   0  0  0  0  0  0  0  0  0  0  0  0
   -3.5933   -0.8125    1.9458 H   0  0  0  0  0  0  0  0  0  0  0  0
   -6.4451    2.5727   -1.3302 H   0  0  0  0  0  0  0  0  0  0  0  0
   -1.2855    3.0781   -0.0957 H   0  0  0  0  0  0  0  0  0  0  0  0
   -1.9930   -1.1444   -0.3494 H   0  0  0  0  0  0  0  0  0  0  0  0
   -0.8161   -3.3037   -0.3966 H   0  0  0  0  0  0  0  0  0  0  0  0
    1.1547   -4.8501   -0.3858 H   0  0  0  0  0  0  0  0  0  0  0  0
    3.3820   -3.7170   -0.2258 H   0  0  0  0  0  0  0  0  0  0  0  0
    4.9536   -1.8435   -0.0611 H   0  0  0  0  0  0  0  0  0  0  0  0
    7.3975   -0.3811    0.1204 H   0  0  0  0  0  0  0  0  0  0  0  0
    8.1002    2.1463    0.2746 H   0  0  0  0  0  0  0  0  0  0  0  0
    2.7737    2.6369    0.0569 H   0  0  0  0  0  0  0  0  0  0  0  0
  1  2  1  0
  2  3  2  0
  3  4  1  0
  4  5  1  0
  5  6  2  0
  6  7  1  0
  7  8  1  0
  8  9  1  0
  9 10  2  0
 10 11  1  0
 11 12  2  0
 12 13  1  0
 13 14  2  0
 13 15  1  0
 15 16  2  0
 16 17  1  0
 17 18  1  0
 18 19  2  0
 19 20  1  0
 20 21  2  0
 21 22  1  0
 22 23  1  0
 23 24  2  0
 24 25  1  0
 25 26  1  0
 26 27  1  0
 27 28  2  0
  5  1  1  0
 14  9  1  0
 19 15  1  0
 28 20  1  0
  8  4  2  0
 28 12  1  0
 26 22  2  0
  1 29  1  0
  1 30  1  0
  2 31  1  0
  3 32  1  0
  6 33  1  0
 10 34  1  0
 14 35  1  0
 16 36  1  0
 17 37  1  0
 18 38  1  0
 21 39  1  0
 23 40  1  0
 24 41  1  0
 27 42  1  0
M  END
