
     RDKit          3D

 37 42  0  0  0  0  0  0  0  0999 V2000
    5.2663   -0.5492   -1.0160 C   0  0  0  0  0  0  0  0  0  0  0  0
    6.2456   -0.3444    0.1137 C   0  0  0  0  0  0  0  0  0  0  0  0
    5.6440   -0.0285    1.2716 C   0  0  0  0  0  0  0  0  0  0  0  0
    4.2103    0.0088    1.0316 C   0  0  0  0  0  0  0  0  0  0  0  0
    3.1881    0.2894    1.9247 C   0  0  0  0  0  0  0  0  0  0  0  0
    1.9026    0.2442    1.3788 C   0  0  0  0  0  0  0  0  0  0  0  0
    0.7543    0.4894    2.0883 O   0  0  0  0  0  0  0  0  0  0  0  0
   -0.2939    0.3530    1.2203 C   0  0  0  0  0  0  0  0  0  0  0  0
   -1.6606    0.5181    1.5296 C   0  0  0  0  0  0  0  0  0  0  0  0
   -2.6333    0.3372    0.5151 C   0  0  0  0  0  0  0  0  0  0  0  0
   -4.0648    0.4620    0.7434 C   0  0  0  0  0  0  0  0  0  0  0  0
   -5.0635   -0.4729    0.5441 C   0  0  0  0  0  0  0  0  0  0  0  0
   -6.3551    0.0241    0.8847 C   0  0  0  0  0  0  0  0  0  0  0  0
   -6.3023    1.3234    1.3356 C   0  0  0  0  0  0  0  0  0  0  0  0
   -4.7053    1.9338    1.3487 S   0  0  0  0  0  0  0  0  0  0  0  0
   -2.0832    0.0018   -0.7341 C   0  0  0  0  0  0  0  0  0  0  0  0
   -2.7532   -0.2101   -1.9208 C   0  0  0  0  0  0  0  0  0  0  0  0
   -1.8179   -0.5037   -2.9001 N   0  0  0  0  0  0  0  0  0  0  0  0
   -0.5432   -0.4777   -2.3707 C   0  0  0  0  0  0  0  0  0  0  0  0
   -0.7203   -0.1633   -1.0579 C   0  0  0  0  0  0  0  0  0  0  0  0
    0.2236    0.0221   -0.0148 C   0  0  0  0  0  0  0  0  0  0  0  0
    1.6172   -0.0571    0.0369 C   0  0  0  0  0  0  0  0  0  0  0  0
    2.6781   -0.3380   -0.8465 C   0  0  0  0  0  0  0  0  0  0  0  0
    3.9643   -0.2962   -0.3151 C   0  0  0  0  0  0  0  0  0  0  0  0
    5.4353    0.1767   -1.8165 H   0  0  0  0  0  0  0  0  0  0  0  0
    5.3200   -1.5719   -1.3996 H   0  0  0  0  0  0  0  0  0  0  0  0
    7.3146   -0.4445   -0.0111 H   0  0  0  0  0  0  0  0  0  0  0  0
    6.1131    0.1674    2.2223 H   0  0  0  0  0  0  0  0  0  0  0  0
    3.3566    0.5269    2.9659 H   0  0  0  0  0  0  0  0  0  0  0  0
   -1.9525    0.7726    2.5437 H   0  0  0  0  0  0  0  0  0  0  0  0
   -4.8729   -1.4732    0.1738 H   0  0  0  0  0  0  0  0  0  0  0  0
   -7.2739   -0.5436    0.8052 H   0  0  0  0  0  0  0  0  0  0  0  0
   -7.1238    1.9464    1.6614 H   0  0  0  0  0  0  0  0  0  0  0  0
   -3.8038   -0.1740   -2.1763 H   0  0  0  0  0  0  0  0  0  0  0  0
   -2.0399   -0.6984   -3.8680 H   0  0  0  0  0  0  0  0  0  0  0  0
    0.3229   -0.6753   -2.9851 H   0  0  0  0  0  0  0  0  0  0  0  0
    2.5066   -0.5754   -1.8892 H   0  0  0  0  0  0  0  0  0  0  0  0
  1  2  1  0
  2  3  2  0
  3  4  1  0
  4  5  2  0
  5  6  1  0
  6  7  1  0
  7  8  1  0
  8  9  1  0
  9 10  2  0
 10 11  1  0
 11 12  2  0
 12 13  1  0
 13 14  2  0
 14 15  1  0
 10 16  1  0
 16 17  2  0
 17 18  1  0
 18 19  1  0
 19 20  2  0
 20 21  1  0
 21 22  1  0
 22 23  1  0
 23 24  2  0
 24  1  1  0
 24  4  1  0
 22  6  2  0
 21  8  2  0
 15 11  1  0
 20 16  1  0
  1 25  1  0
  1 26  1  0
  2 27  1  0
  3 28  1  0
  5 29  1  0
  9 30  1  0
 12 31  1  0
 13 32  1  0
 14 33  1  0
 17 34  1  0
 18 35  1  0
 19 36  1  0
 23 37  1  0
M  END
