
     RDKit          3D

 31 35  0  0  0  0  0  0  0  0999 V2000
    5.0530    0.9283   -0.2402 C   0  0  0  0  0  0  0  0  0  0  0  0
    5.7338   -0.1123    0.6156 C   0  0  0  0  0  0  0  0  0  0  0  0
    4.8744   -1.0180    1.1096 C   0  0  0  0  0  0  0  0  0  0  0  0
    3.5457   -0.6707    0.6335 C   0  0  0  0  0  0  0  0  0  0  0  0
    2.3377   -1.3030    0.8733 C   0  0  0  0  0  0  0  0  0  0  0  0
    1.1892   -0.7395    0.2751 C   0  0  0  0  0  0  0  0  0  0  0  0
   -0.4249   -1.3243    0.4079 S   0  0  0  0  0  0  0  0  0  0  0  0
   -1.0603   -0.0784   -0.5738 C   0  0  0  0  0  0  0  0  0  0  0  0
   -0.0582    0.7661   -1.0082 C   0  0  0  0  0  0  0  0  0  0  0  0
    1.2476    0.4075   -0.5281 C   0  0  0  0  0  0  0  0  0  0  0  0
    2.5032    1.0284   -0.7519 C   0  0  0  0  0  0  0  0  0  0  0  0
    3.6284    0.4702   -0.1616 C   0  0  0  0  0  0  0  0  0  0  0  0
   -2.4673   -0.0010   -0.8890 C   0  0  0  0  0  0  0  0  0  0  0  0
   -2.9793    0.3389   -2.5071 S   0  0  0  0  0  0  0  0  0  0  0  0
   -4.6409    0.2436   -2.1036 C   0  0  0  0  0  0  0  0  0  0  0  0
   -4.8143   -0.0267   -0.7721 C   0  0  0  0  0  0  0  0  0  0  0  0
   -6.0453   -0.1399   -0.2000 N   0  0  0  0  0  0  0  0  0  0  0  0
   -5.9342   -0.3993    1.1314 C   0  0  0  0  0  0  0  0  0  0  0  0
   -4.7280   -0.5299    1.8288 C   0  0  0  0  0  0  0  0  0  0  0  0
   -3.4890   -0.4190    1.2791 N   0  0  0  0  0  0  0  0  0  0  0  0
   -3.5626   -0.1666   -0.0620 C   0  0  0  0  0  0  0  0  0  0  0  0
    5.4269    0.8954   -1.2674 H   0  0  0  0  0  0  0  0  0  0  0  0
    5.1753    1.9274    0.1875 H   0  0  0  0  0  0  0  0  0  0  0  0
    6.7985   -0.1151    0.8016 H   0  0  0  0  0  0  0  0  0  0  0  0
    5.1000   -1.8588    1.7452 H   0  0  0  0  0  0  0  0  0  0  0  0
    2.2700   -2.1908    1.4917 H   0  0  0  0  0  0  0  0  0  0  0  0
   -0.2398    1.6240   -1.6444 H   0  0  0  0  0  0  0  0  0  0  0  0
    2.5803    1.9178   -1.3692 H   0  0  0  0  0  0  0  0  0  0  0  0
   -5.4046    0.3939   -2.8527 H   0  0  0  0  0  0  0  0  0  0  0  0
   -6.8801   -0.5045    1.6555 H   0  0  0  0  0  0  0  0  0  0  0  0
   -4.7350   -0.7363    2.8955 H   0  0  0  0  0  0  0  0  0  0  0  0
  1  2  1  0
  2  3  2  0
  3  4  1  0
  4  5  2  0
  5  6  1  0
  6  7  1  0
  7  8  1  0
  8  9  2  0
  9 10  1  0
 10 11  1  0
 11 12  2  0
  8 13  1  0
 13 14  1  0
 14 15  1  0
 15 16  2  0
 16 17  1  0
 17 18  2  0
 18 19  1  0
 19 20  2  0
 20 21  1  0
 12  1  1  0
 21 13  2  0
 12  4  1  0
 21 16  1  0
 10  6  2  0
  1 22  1  0
  1 23  1  0
  2 24  1  0
  3 25  1  0
  5 26  1  0
  9 27  1  0
 11 28  1  0
 15 29  1  0
 18 30  1  0
 19 31  1  0
M  END
