
     RDKit          3D

 43 49  0  0  0  0  0  0  0  0999 V2000
   -4.9002    0.5621   -0.7886 C   0  0  0  0  0  0  0  0  0  0  0  0
   -6.0342   -0.4307   -0.7120 C   0  0  0  0  0  0  0  0  0  0  0  0
   -5.6165   -1.6598   -0.3772 C   0  0  0  0  0  0  0  0  0  0  0  0
   -4.1781   -1.5937   -0.1961 C   0  0  0  0  0  0  0  0  0  0  0  0
   -3.2977   -2.6026    0.1117 C   0  0  0  0  0  0  0  0  0  0  0  0
   -1.9349   -2.2879    0.2330 C   0  0  0  0  0  0  0  0  0  0  0  0
   -1.3933   -0.9775    0.0918 C   0  0  0  0  0  0  0  0  0  0  0  0
   -2.3500    0.0239   -0.3118 C   0  0  0  0  0  0  0  0  0  0  0  0
   -3.7237   -0.2937   -0.4233 C   0  0  0  0  0  0  0  0  0  0  0  0
   -1.7260    1.2674   -0.5888 C   0  0  0  0  0  0  0  0  0  0  0  0
   -2.3302    2.4297   -1.0118 C   0  0  0  0  0  0  0  0  0  0  0  0
   -1.3468    3.3749   -1.1902 N   0  0  0  0  0  0  0  0  0  0  0  0
   -0.1202    2.8347   -0.8902 C   0  0  0  0  0  0  0  0  0  0  0  0
   -0.3235    1.5264   -0.5107 C   0  0  0  0  0  0  0  0  0  0  0  0
    0.6678    0.6114   -0.0986 C   0  0  0  0  0  0  0  0  0  0  0  0
    2.0763    0.9484   -0.0730 C   0  0  0  0  0  0  0  0  0  0  0  0
    3.1068    0.0911    0.3719 C   0  0  0  0  0  0  0  0  0  0  0  0
    4.5206    0.4655    0.3377 C   0  0  0  0  0  0  0  0  0  0  0  0
    5.4306   -0.4876    0.1160 N   0  0  0  0  0  0  0  0  0  0  0  0
    6.6883   -0.0570    0.0560 C   0  0  0  0  0  0  0  0  0  0  0  0
    7.0933    1.2018    0.1937 N   0  0  0  0  0  0  0  0  0  0  0  0
    6.1021    2.0632    0.4006 C   0  0  0  0  0  0  0  0  0  0  0  0
    4.8073    1.7659    0.4744 N   0  0  0  0  0  0  0  0  0  0  0  0
    2.5564   -1.0993    0.8809 C   0  0  0  0  0  0  0  0  0  0  0  0
    3.3144   -2.0607    1.5157 C   0  0  0  0  0  0  0  0  0  0  0  0
    2.3637   -3.3266    2.1550 S   0  0  0  0  0  0  0  0  0  0  0  0
    0.9178   -2.5869    1.6135 C   0  0  0  0  0  0  0  0  0  0  0  0
    1.1304   -1.4504    0.8618 C   0  0  0  0  0  0  0  0  0  0  0  0
    0.0675   -0.6576    0.2852 C   0  0  0  0  0  0  0  0  0  0  0  0
   -5.0513    1.3680   -0.0649 H   0  0  0  0  0  0  0  0  0  0  0  0
   -4.8149    0.9519   -1.8069 H   0  0  0  0  0  0  0  0  0  0  0  0
   -7.0626   -0.1663   -0.9123 H   0  0  0  0  0  0  0  0  0  0  0  0
   -6.2148   -2.5482   -0.2582 H   0  0  0  0  0  0  0  0  0  0  0  0
   -3.6379   -3.6251    0.2392 H   0  0  0  0  0  0  0  0  0  0  0  0
   -1.2775   -3.1371    0.3849 H   0  0  0  0  0  0  0  0  0  0  0  0
   -3.3561    2.6971   -1.2121 H   0  0  0  0  0  0  0  0  0  0  0  0
   -1.5040    4.3262   -1.4975 H   0  0  0  0  0  0  0  0  0  0  0  0
    0.7689    3.4443   -0.9712 H   0  0  0  0  0  0  0  0  0  0  0  0
    2.3748    1.9327   -0.4358 H   0  0  0  0  0  0  0  0  0  0  0  0
    7.4548   -0.8037   -0.1221 H   0  0  0  0  0  0  0  0  0  0  0  0
    6.3738    3.1068    0.5180 H   0  0  0  0  0  0  0  0  0  0  0  0
    4.3816   -2.0932    1.6823 H   0  0  0  0  0  0  0  0  0  0  0  0
   -0.0029   -3.0478    1.9298 H   0  0  0  0  0  0  0  0  0  0  0  0
  1  2  1  0
  2  3  2  0
  3  4  1  0
  4  5  2  0
  5  6  1  0
  6  7  2  0
  7  8  1  0
  8  9  2  0
  8 10  1  0
 10 11  2  0
 11 12  1  0
 12 13  1  0
 13 14  2  0
 14 15  1  0
 15 16  1  0
 16 17  2  0
 17 18  1  0
 18 19  2  0
 19 20  1  0
 20 21  2  0
 21 22  1  0
 22 23  2  0
 17 24  1  0
 24 25  2  0
 25 26  1  0
 26 27  1  0
 27 28  2  0
 28 29  1  0
  9  1  1  0
 14 10  1  0
 29 15  2  0
  9  4  1  0
 23 18  1  0
 28 24  1  0
 29  7  1  0
  1 30  1  0
  1 31  1  0
  2 32  1  0
  3 33  1  0
  5 34  1  0
  6 35  1  0
 11 36  1  0
 12 37  1  0
 13 38  1  0
 16 39  1  0
 20 40  1  0
 22 41  1  0
 25 42  1  0
 27 43  1  0
M  END
