
     RDKit          3D

 33 37  0  0  0  0  0  0  0  0999 V2000
   -4.2048   -1.1301   -0.2817 C   0  0  0  0  0  0  0  0  0  0  0  0
   -5.3962   -0.2268   -0.0651 C   0  0  0  0  0  0  0  0  0  0  0  0
   -5.0462    1.0346    0.2361 C   0  0  0  0  0  0  0  0  0  0  0  0
   -3.5935    1.1006    0.2509 C   0  0  0  0  0  0  0  0  0  0  0  0
   -2.7634    2.1928    0.5114 C   0  0  0  0  0  0  0  0  0  0  0  0
   -1.3740    2.0206    0.4694 C   0  0  0  0  0  0  0  0  0  0  0  0
   -0.8852    0.7591    0.1677 C   0  0  0  0  0  0  0  0  0  0  0  0
   -1.7219   -0.3599   -0.0992 C   0  0  0  0  0  0  0  0  0  0  0  0
   -0.9463   -1.6464   -0.4071 C   0  0  0  0  0  0  0  0  0  0  0  0
    0.4317   -1.0763   -0.2717 C   0  0  0  0  0  0  0  0  0  0  0  0
    1.7708   -1.4853   -0.3703 C   0  0  0  0  0  0  0  0  0  0  0  0
    2.5635   -0.3648   -0.1031 C   0  0  0  0  0  0  0  0  0  0  0  0
    1.7079    0.7016    0.1523 N   0  0  0  0  0  0  0  0  0  0  0  0
    0.4401    0.2557    0.0465 C   0  0  0  0  0  0  0  0  0  0  0  0
    4.0086   -0.2057   -0.0660 C   0  0  0  0  0  0  0  0  0  0  0  0
    4.7432   -1.2864   -0.3250 N   0  0  0  0  0  0  0  0  0  0  0  0
    6.0522   -1.0653   -0.2730 C   0  0  0  0  0  0  0  0  0  0  0  0
    6.6421    0.0967    0.0045 N   0  0  0  0  0  0  0  0  0  0  0  0
    5.7918    1.0936    0.2435 C   0  0  0  0  0  0  0  0  0  0  0  0
    4.4640    1.0153    0.2256 N   0  0  0  0  0  0  0  0  0  0  0  0
   -3.0824   -0.1726   -0.0536 C   0  0  0  0  0  0  0  0  0  0  0  0
   -4.1934   -1.9428    0.4499 H   0  0  0  0  0  0  0  0  0  0  0  0
   -4.1945   -1.5243   -1.3017 H   0  0  0  0  0  0  0  0  0  0  0  0
   -6.4166   -0.5736   -0.1474 H   0  0  0  0  0  0  0  0  0  0  0  0
   -5.7009    1.8671    0.4354 H   0  0  0  0  0  0  0  0  0  0  0  0
   -3.1871    3.1647    0.7439 H   0  0  0  0  0  0  0  0  0  0  0  0
   -0.7070    2.8513    0.6675 H   0  0  0  0  0  0  0  0  0  0  0  0
   -1.1456   -2.4162    0.3423 H   0  0  0  0  0  0  0  0  0  0  0  0
   -1.1467   -1.9943   -1.4233 H   0  0  0  0  0  0  0  0  0  0  0  0
    2.1468   -2.4726   -0.6065 H   0  0  0  0  0  0  0  0  0  0  0  0
    2.0168    1.6387    0.3760 H   0  0  0  0  0  0  0  0  0  0  0  0
    6.7018   -1.9101   -0.4755 H   0  0  0  0  0  0  0  0  0  0  0  0
    6.2246    2.0611    0.4745 H   0  0  0  0  0  0  0  0  0  0  0  0
  1  2  1  0
  2  3  2  0
  3  4  1  0
  4  5  2  0
  5  6  1  0
  6  7  2  0
  7  8  1  0
  8  9  1  0
  9 10  1  0
 10 11  1  0
 11 12  2  0
 12 13  1  0
 13 14  1  0
 12 15  1  0
 15 16  2  0
 16 17  1  0
 17 18  2  0
 18 19  1  0
 19 20  2  0
  8 21  2  0
 21  1  1  0
 21  4  1  0
  7 14  1  0
 20 15  1  0
 14 10  2  0
  1 22  1  0
  1 23  1  0
  2 24  1  0
  3 25  1  0
  5 26  1  0
  6 27  1  0
  9 28  1  0
  9 29  1  0
 11 30  1  0
 13 31  1  0
 17 32  1  0
 19 33  1  0
M  END
