
     RDKit          3D

 41 46  0  0  0  0  0  0  0  0999 V2000
    4.6031   -0.1184    0.1131 C   0  0  0  0  0  0  0  0  0  0  0  0
    5.4576   -1.3500    0.2602 C   0  0  0  0  0  0  0  0  0  0  0  0
    4.7294   -2.4640    0.4038 C   0  0  0  0  0  0  0  0  0  0  0  0
    3.3298   -2.0782    0.3656 C   0  0  0  0  0  0  0  0  0  0  0  0
    2.2320   -2.9048    0.4761 C   0  0  0  0  0  0  0  0  0  0  0  0
    0.9767   -2.3170    0.4119 C   0  0  0  0  0  0  0  0  0  0  0  0
    0.8439   -0.9141    0.2385 C   0  0  0  0  0  0  0  0  0  0  0  0
   -0.4567   -0.3869    0.1822 C   0  0  0  0  0  0  0  0  0  0  0  0
   -1.6113   -1.1032    0.2795 O   0  0  0  0  0  0  0  0  0  0  0  0
   -2.6913   -0.2517    0.1815 C   0  0  0  0  0  0  0  0  0  0  0  0
   -2.1716    1.0284    0.0186 C   0  0  0  0  0  0  0  0  0  0  0  0
   -0.7462    0.9522    0.0178 C   0  0  0  0  0  0  0  0  0  0  0  0
    0.3303    1.8650   -0.1033 C   0  0  0  0  0  0  0  0  0  0  0  0
    0.0196    3.2336   -0.2713 C   0  0  0  0  0  0  0  0  0  0  0  0
    1.0300    4.1783   -0.3959 C   0  0  0  0  0  0  0  0  0  0  0  0
    2.3518    3.7667   -0.3542 C   0  0  0  0  0  0  0  0  0  0  0  0
    2.6649    2.4105   -0.1878 C   0  0  0  0  0  0  0  0  0  0  0  0
    1.6799    1.3992   -0.0550 C   0  0  0  0  0  0  0  0  0  0  0  0
    1.9480   -0.0217    0.1197 C   0  0  0  0  0  0  0  0  0  0  0  0
    3.2067   -0.6783    0.1925 C   0  0  0  0  0  0  0  0  0  0  0  0
   -4.0279   -0.7137    0.2487 C   0  0  0  0  0  0  0  0  0  0  0  0
   -4.3673   -2.0098    0.4116 C   0  0  0  0  0  0  0  0  0  0  0  0
   -5.7976   -2.2802    0.4560 C   0  0  0  0  0  0  0  0  0  0  0  0
   -6.5870   -1.1981    0.3282 C   0  0  0  0  0  0  0  0  0  0  0  0
   -5.5577    0.3621    0.1273 Si  0  0  0  0  0  4  0  0  0  0  0  0
    4.8056    0.5705    0.9382 H   0  0  0  0  0  0  0  0  0  0  0  0
    4.7931    0.3470   -0.8583 H   0  0  0  0  0  0  0  0  0  0  0  0
    6.5379   -1.3222    0.2493 H   0  0  0  0  0  0  0  0  0  0  0  0
    5.0889   -3.4726    0.5267 H   0  0  0  0  0  0  0  0  0  0  0  0
    2.3383   -3.9756    0.6085 H   0  0  0  0  0  0  0  0  0  0  0  0
    0.0940   -2.9481    0.4966 H   0  0  0  0  0  0  0  0  0  0  0  0
   -2.7543    1.9317   -0.0895 H   0  0  0  0  0  0  0  0  0  0  0  0
   -1.0115    3.5755   -0.3065 H   0  0  0  0  0  0  0  0  0  0  0  0
    0.7859    5.2291   -0.5249 H   0  0  0  0  0  0  0  0  0  0  0  0
    3.1516    4.4971   -0.4508 H   0  0  0  0  0  0  0  0  0  0  0  0
    3.7203    2.1739   -0.1660 H   0  0  0  0  0  0  0  0  0  0  0  0
   -3.6530   -2.8198    0.5065 H   0  0  0  0  0  0  0  0  0  0  0  0
   -6.1691   -3.2896    0.5836 H   0  0  0  0  0  0  0  0  0  0  0  0
   -7.6651   -1.1736    0.3333 H   0  0  0  0  0  0  0  0  0  0  0  0
   -5.7163    1.2892    1.2763 H   0  0  0  0  0  0  0  0  0  0  0  0
   -5.7352    0.9816   -1.2104 H   0  0  0  0  0  0  0  0  0  0  0  0
  1  2  1  0
  2  3  2  0
  3  4  1  0
  4  5  2  0
  5  6  1  0
  6  7  2  0
  7  8  1  0
  8  9  1  0
  9 10  1  0
 10 11  2  0
 11 12  1  0
 12 13  1  0
 13 14  2  0
 14 15  1  0
 15 16  2  0
 16 17  1  0
 17 18  2  0
 18 19  1  0
 19 20  2  0
 10 21  1  0
 21 22  2  0
 22 23  1  0
 23 24  2  0
 24 25  1  0
 20  1  1  0
 25 21  1  0
 20  4  1  0
 19  7  1  0
 12  8  2  0
 18 13  1  0
  1 26  1  0
  1 27  1  0
  2 28  1  0
  3 29  1  0
  5 30  1  0
  6 31  1  0
 11 32  1  0
 14 33  1  0
 15 34  1  0
 16 35  1  0
 17 36  1  0
 22 37  1  0
 23 38  1  0
 24 39  1  0
 25 40  1  0
 25 41  1  0
M  END
