
     RDKit          3D

 49 56  0  0  0  0  0  0  0  0999 V2000
    6.8211   -1.0411    0.9937 C   0  0  0  0  0  0  0  0  0  0  0  0
    7.8054   -1.5944   -0.0104 C   0  0  0  0  0  0  0  0  0  0  0  0
    7.3038   -1.6532   -1.2556 C   0  0  0  0  0  0  0  0  0  0  0  0
    5.9418   -1.1482   -1.2086 C   0  0  0  0  0  0  0  0  0  0  0  0
    4.9998   -0.9991   -2.2103 C   0  0  0  0  0  0  0  0  0  0  0  0
    3.7495   -0.5069   -2.0189 N   0  0  0  0  0  0  0  0  0  0  0  0
    3.4914   -0.1634   -0.7362 C   0  0  0  0  0  0  0  0  0  0  0  0
    4.3702   -0.2752    0.3427 C   0  0  0  0  0  0  0  0  0  0  0  0
    3.7341    0.1768    1.4751 N   0  0  0  0  0  0  0  0  0  0  0  0
    2.4653    0.5664    1.1216 C   0  0  0  0  0  0  0  0  0  0  0  0
    1.2692    1.1024    1.6589 C   0  0  0  0  0  0  0  0  0  0  0  0
    0.4030    1.1959    0.5789 C   0  0  0  0  0  0  0  0  0  0  0  0
    1.0410    0.7655   -0.5642 N   0  0  0  0  0  0  0  0  0  0  0  0
    2.3005    0.3713   -0.2143 C   0  0  0  0  0  0  0  0  0  0  0  0
   -0.9431    1.6948    0.5401 C   0  0  0  0  0  0  0  0  0  0  0  0
   -1.1328    3.3936    0.7598 S   0  0  0  0  0  0  0  0  0  0  0  0
   -2.8039    3.3253    0.4442 C   0  0  0  0  0  0  0  0  0  0  0  0
   -3.2352    2.0407    0.2060 C   0  0  0  0  0  0  0  0  0  0  0  0
   -2.1621    1.0661    0.3110 C   0  0  0  0  0  0  0  0  0  0  0  0
   -2.3845   -0.3467    0.1543 C   0  0  0  0  0  0  0  0  0  0  0  0
   -1.4179   -1.3787    0.3197 C   0  0  0  0  0  0  0  0  0  0  0  0
   -1.7384   -2.7162    0.1209 C   0  0  0  0  0  0  0  0  0  0  0  0
   -3.0290   -3.0560   -0.2334 C   0  0  0  0  0  0  0  0  0  0  0  0
   -4.0026   -2.0595   -0.3707 C   0  0  0  0  0  0  0  0  0  0  0  0
   -3.7484   -0.6768   -0.1771 C   0  0  0  0  0  0  0  0  0  0  0  0
   -4.8179    0.3319   -0.3010 C   0  0  0  0  0  0  0  0  0  0  0  0
   -6.1619    0.0019   -0.6208 C   0  0  0  0  0  0  0  0  0  0  0  0
   -7.1903    0.9496   -0.7291 C   0  0  0  0  0  0  0  0  0  0  0  0
   -6.9271    2.2921   -0.5209 C   0  0  0  0  0  0  0  0  0  0  0  0
   -5.6343    2.6875   -0.2066 C   0  0  0  0  0  0  0  0  0  0  0  0
   -4.5876    1.7297   -0.0973 C   0  0  0  0  0  0  0  0  0  0  0  0
    5.6385   -0.7825    0.1085 C   0  0  0  0  0  0  0  0  0  0  0  0
    7.1922   -0.1153    1.4418 H   0  0  0  0  0  0  0  0  0  0  0  0
    6.5864   -1.7798    1.7650 H   0  0  0  0  0  0  0  0  0  0  0  0
    8.8048   -1.9054    0.2601 H   0  0  0  0  0  0  0  0  0  0  0  0
    7.7993   -2.0059   -2.1457 H   0  0  0  0  0  0  0  0  0  0  0  0
    5.2257   -1.2795   -3.2345 H   0  0  0  0  0  0  0  0  0  0  0  0
    4.0996    0.2290    2.4167 H   0  0  0  0  0  0  0  0  0  0  0  0
    1.0575    1.3811    2.6822 H   0  0  0  0  0  0  0  0  0  0  0  0
    0.6802    0.7232   -1.5098 H   0  0  0  0  0  0  0  0  0  0  0  0
   -3.3646    4.2480    0.4542 H   0  0  0  0  0  0  0  0  0  0  0  0
   -0.4038   -1.1633    0.6315 H   0  0  0  0  0  0  0  0  0  0  0  0
   -0.9807   -3.4842    0.2489 H   0  0  0  0  0  0  0  0  0  0  0  0
   -3.2940   -4.0979   -0.3936 H   0  0  0  0  0  0  0  0  0  0  0  0
   -4.9942   -2.4140   -0.6365 H   0  0  0  0  0  0  0  0  0  0  0  0
   -6.4570   -1.0284   -0.7975 H   0  0  0  0  0  0  0  0  0  0  0  0
   -8.1981    0.6251   -0.9769 H   0  0  0  0  0  0  0  0  0  0  0  0
   -7.7219    3.0279   -0.6040 H   0  0  0  0  0  0  0  0  0  0  0  0
   -5.4485    3.7456   -0.0511 H   0  0  0  0  0  0  0  0  0  0  0  0
  1  2  1  0
  2  3  2  0
  3  4  1  0
  4  5  2  0
  5  6  1  0
  6  7  2  0
  7  8  1  0
  8  9  1  0
  9 10  1  0
 10 11  1  0
 11 12  2  0
 12 13  1  0
 13 14  1  0
 12 15  1  0
 15 16  1  0
 16 17  1  0
 17 18  2  0
 18 19  1  0
 19 20  1  0
 20 21  2  0
 21 22  1  0
 22 23  2  0
 23 24  1  0
 24 25  2  0
 25 26  1  0
 26 27  2  0
 27 28  1  0
 28 29  2  0
 29 30  1  0
 30 31  2  0
  8 32  2  0
 32  1  1  0
 32  4  1  0
 14  7  1  0
 19 15  2  0
 25 20  1  0
 31 26  1  0
 14 10  2  0
 31 18  1  0
  1 33  1  0
  1 34  1  0
  2 35  1  0
  3 36  1  0
  5 37  1  0
  9 38  1  0
 11 39  1  0
 13 40  1  0
 17 41  1  0
 21 42  1  0
 22 43  1  0
 23 44  1  0
 24 45  1  0
 27 46  1  0
 28 47  1  0
 29 48  1  0
 30 49  1  0
M  END
