
     RDKit          3D

 47 53  0  0  0  0  0  0  0  0999 V2000
   -5.4539    1.3034   -0.2024 C   0  0  0  0  0  0  0  0  0  0  0  0
   -6.5921    0.5425    0.4349 C   0  0  0  0  0  0  0  0  0  0  0  0
   -6.1760   -0.5586    1.0784 C   0  0  0  0  0  0  0  0  0  0  0  0
   -4.7369   -0.6229    0.9246 C   0  0  0  0  0  0  0  0  0  0  0  0
   -3.8223   -1.5296    1.3771 C   0  0  0  0  0  0  0  0  0  0  0  0
   -2.4914   -1.4171    1.1257 N   0  0  0  0  0  0  0  0  0  0  0  0
   -1.9628   -0.3959    0.4053 C   0  0  0  0  0  0  0  0  0  0  0  0
   -2.9049    0.5838   -0.0898 C   0  0  0  0  0  0  0  0  0  0  0  0
   -4.2812    0.4532    0.1793 C   0  0  0  0  0  0  0  0  0  0  0  0
   -2.2800    1.6082   -0.8252 C   0  0  0  0  0  0  0  0  0  0  0  0
   -2.8434    2.6975   -1.4412 C   0  0  0  0  0  0  0  0  0  0  0  0
   -1.8737    3.4437   -2.0464 O   0  0  0  0  0  0  0  0  0  0  0  0
   -0.6831    2.8212   -1.8118 C   0  0  0  0  0  0  0  0  0  0  0  0
   -0.8888    1.6878   -1.0638 C   0  0  0  0  0  0  0  0  0  0  0  0
    0.0624    0.7597   -0.6027 C   0  0  0  0  0  0  0  0  0  0  0  0
    1.4309    0.9085   -0.8823 C   0  0  0  0  0  0  0  0  0  0  0  0
    2.3578   -0.0197   -0.4178 C   0  0  0  0  0  0  0  0  0  0  0  0
    3.7738    0.2117   -0.7563 C   0  0  0  0  0  0  0  0  0  0  0  0
    4.3229   -0.3128   -1.9368 C   0  0  0  0  0  0  0  0  0  0  0  0
    5.6621   -0.0865   -2.2613 C   0  0  0  0  0  0  0  0  0  0  0  0
    6.4674    0.6692   -1.4113 C   0  0  0  0  0  0  0  0  0  0  0  0
    5.9358    1.1997   -0.2373 C   0  0  0  0  0  0  0  0  0  0  0  0
    4.5967    0.9737    0.0877 C   0  0  0  0  0  0  0  0  0  0  0  0
    1.9076   -1.1234    0.3443 C   0  0  0  0  0  0  0  0  0  0  0  0
    2.8443   -2.0755    0.8227 C   0  0  0  0  0  0  0  0  0  0  0  0
    2.4707   -3.1812    1.5757 C   0  0  0  0  0  0  0  0  0  0  0  0
    1.1388   -3.3637    1.8717 C   0  0  0  0  0  0  0  0  0  0  0  0
    0.1934   -2.4401    1.4126 C   0  0  0  0  0  0  0  0  0  0  0  0
    0.5086   -1.2884    0.6383 C   0  0  0  0  0  0  0  0  0  0  0  0
   -0.4907   -0.3254    0.1615 C   0  0  0  0  0  0  0  0  0  0  0  0
   -5.5856    1.3450   -1.2873 H   0  0  0  0  0  0  0  0  0  0  0  0
   -5.3810    2.3068    0.2264 H   0  0  0  0  0  0  0  0  0  0  0  0
   -7.6228    0.8625    0.3710 H   0  0  0  0  0  0  0  0  0  0  0  0
   -6.7771   -1.2748    1.6147 H   0  0  0  0  0  0  0  0  0  0  0  0
   -4.1116   -2.3938    1.9654 H   0  0  0  0  0  0  0  0  0  0  0  0
   -3.8434    3.0883   -1.5542 H   0  0  0  0  0  0  0  0  0  0  0  0
    0.1803    3.3108   -2.2397 H   0  0  0  0  0  0  0  0  0  0  0  0
    1.7892    1.7528   -1.4672 H   0  0  0  0  0  0  0  0  0  0  0  0
    3.7046   -0.9062   -2.6076 H   0  0  0  0  0  0  0  0  0  0  0  0
    6.0756   -0.5009   -3.1771 H   0  0  0  0  0  0  0  0  0  0  0  0
    7.5099    0.8448   -1.6638 H   0  0  0  0  0  0  0  0  0  0  0  0
    6.5628    1.7891    0.4266 H   0  0  0  0  0  0  0  0  0  0  0  0
    4.1935    1.3915    1.0082 H   0  0  0  0  0  0  0  0  0  0  0  0
    3.9066   -1.9655    0.6092 H   0  0  0  0  0  0  0  0  0  0  0  0
    3.2180   -3.8878    1.9237 H   0  0  0  0  0  0  0  0  0  0  0  0
    0.8172   -4.2195    2.4590 H   0  0  0  0  0  0  0  0  0  0  0  0
   -0.8283   -2.6662    1.6944 H   0  0  0  0  0  0  0  0  0  0  0  0
  1  2  1  0
  2  3  2  0
  3  4  1  0
  4  5  2  0
  5  6  1  0
  6  7  2  0
  7  8  1  0
  8  9  2  0
  8 10  1  0
 10 11  2  0
 11 12  1  0
 12 13  1  0
 13 14  2  0
 14 15  1  0
 15 16  2  0
 16 17  1  0
 17 18  1  0
 18 19  2  0
 19 20  1  0
 20 21  2  0
 21 22  1  0
 22 23  2  0
 17 24  2  0
 24 25  1  0
 25 26  2  0
 26 27  1  0
 27 28  2  0
 28 29  1  0
 29 30  2  0
  9  1  1  0
 14 10  1  0
 30 15  1  0
  9  4  1  0
 23 18  1  0
 29 24  1  0
 30  7  1  0
  1 31  1  0
  1 32  1  0
  2 33  1  0
  3 34  1  0
  5 35  1  0
 11 36  1  0
 13 37  1  0
 16 38  1  0
 19 39  1  0
 20 40  1  0
 21 41  1  0
 22 42  1  0
 23 43  1  0
 25 44  1  0
 26 45  1  0
 27 46  1  0
 28 47  1  0
M  END
