
     RDKit          3D

 50 57  0  0  0  0  0  0  0  0999 V2000
    5.7479   -1.3110    1.2977 C   0  0  0  0  0  0  0  0  0  0  0  0
    6.9364   -0.3826    1.3511 C   0  0  0  0  0  0  0  0  0  0  0  0
    6.6188    0.8740    1.0096 C   0  0  0  0  0  0  0  0  0  0  0  0
    5.2029    0.8855    0.7030 C   0  0  0  0  0  0  0  0  0  0  0  0
    4.3895    1.9063    0.3065 C   0  0  0  0  0  0  0  0  0  0  0  0
    3.0702    1.7277    0.0619 N   0  0  0  0  0  0  0  0  0  0  0  0
    2.4669    0.5169    0.1947 C   0  0  0  0  0  0  0  0  0  0  0  0
    3.2772   -0.6015    0.6126 C   0  0  0  0  0  0  0  0  0  0  0  0
    4.6530   -0.3825    0.8606 C   0  0  0  0  0  0  0  0  0  0  0  0
    2.5489   -1.8266    0.7235 C   0  0  0  0  0  0  0  0  0  0  0  0
    3.0914   -3.0338    1.1036 C   0  0  0  0  0  0  0  0  0  0  0  0
    1.9336   -4.2970    1.1325 S   0  0  0  0  0  0  0  0  0  0  0  0
    0.6853   -3.2377    0.6338 C   0  0  0  0  0  0  0  0  0  0  0  0
    1.1365   -1.9486    0.4473 C   0  0  0  0  0  0  0  0  0  0  0  0
    0.3298   -0.8733    0.0390 C   0  0  0  0  0  0  0  0  0  0  0  0
   -1.1078   -1.0368   -0.2318 C   0  0  0  0  0  0  0  0  0  0  0  0
   -1.8884   -0.0083   -0.6125 C   0  0  0  0  0  0  0  0  0  0  0  0
   -3.2984   -0.3095   -0.8583 C   0  0  0  0  0  0  0  0  0  0  0  0
   -3.8290   -0.8077   -2.0739 C   0  0  0  0  0  0  0  0  0  0  0  0
   -5.2257   -1.0886   -2.2842 C   0  0  0  0  0  0  0  0  0  0  0  0
   -6.2327   -0.9005   -1.3075 C   0  0  0  0  0  0  0  0  0  0  0  0
   -5.6862   -0.4089   -0.1287 C   0  0  0  0  0  0  0  0  0  0  0  0
   -6.3753   -0.1098    1.0177 C   0  0  0  0  0  0  0  0  0  0  0  0
   -5.4495    0.3491    1.9325 N   0  0  0  0  0  0  0  0  0  0  0  0
   -4.1853    0.3421    1.3804 C   0  0  0  0  0  0  0  0  0  0  0  0
   -4.3053   -0.1260    0.0945 C   0  0  0  0  0  0  0  0  0  0  0  0
   -1.2817    1.3043   -0.7793 C   0  0  0  0  0  0  0  0  0  0  0  0
   -1.9655    2.4008   -1.1701 C   0  0  0  0  0  0  0  0  0  0  0  0
   -0.8755    3.8944   -1.2721 Si  0  0  0  0  0  4  0  0  0  0  0  0
    0.5379    2.8119   -0.7323 C   0  0  0  0  0  0  0  0  0  0  0  0
    0.1708    1.5279   -0.5220 C   0  0  0  0  0  0  0  0  0  0  0  0
    1.0467    0.3735   -0.0801 C   0  0  0  0  0  0  0  0  0  0  0  0
    5.9238   -2.1010    0.5622 H   0  0  0  0  0  0  0  0  0  0  0  0
    5.5525   -1.7249    2.2910 H   0  0  0  0  0  0  0  0  0  0  0  0
    7.9271   -0.7094    1.6348 H   0  0  0  0  0  0  0  0  0  0  0  0
    7.2727    1.7296    0.9638 H   0  0  0  0  0  0  0  0  0  0  0  0
    4.7575    2.9165    0.1660 H   0  0  0  0  0  0  0  0  0  0  0  0
    4.1013   -3.2904    1.3758 H   0  0  0  0  0  0  0  0  0  0  0  0
   -0.3065   -3.6478    0.5122 H   0  0  0  0  0  0  0  0  0  0  0  0
   -1.5522   -2.0180   -0.1119 H   0  0  0  0  0  0  0  0  0  0  0  0
   -3.1444   -0.9863   -2.9037 H   0  0  0  0  0  0  0  0  0  0  0  0
   -5.5234   -1.4689   -3.2620 H   0  0  0  0  0  0  0  0  0  0  0  0
   -7.2778   -1.1139   -1.4781 H   0  0  0  0  0  0  0  0  0  0  0  0
   -7.4231   -0.1734    1.2772 H   0  0  0  0  0  0  0  0  0  0  0  0
   -5.6656    0.6496    2.8739 H   0  0  0  0  0  0  0  0  0  0  0  0
   -3.3303    0.6735    1.9546 H   0  0  0  0  0  0  0  0  0  0  0  0
   -3.0170    2.4626   -1.4038 H   0  0  0  0  0  0  0  0  0  0  0  0
   -0.7187    4.3945   -2.6601 H   0  0  0  0  0  0  0  0  0  0  0  0
   -1.2246    4.9269   -0.2654 H   0  0  0  0  0  0  0  0  0  0  0  0
    1.5115    3.2571   -0.6278 H   0  0  0  0  0  0  0  0  0  0  0  0
  1  2  1  0
  2  3  2  0
  3  4  1  0
  4  5  2  0
  5  6  1  0
  6  7  2  0
  7  8  1  0
  8  9  2  0
  8 10  1  0
 10 11  2  0
 11 12  1  0
 12 13  1  0
 13 14  2  0
 14 15  1  0
 15 16  1  0
 16 17  2  0
 17 18  1  0
 18 19  2  0
 19 20  1  0
 20 21  2  0
 21 22  1  0
 22 23  2  0
 23 24  1  0
 24 25  1  0
 25 26  2  0
 17 27  1  0
 27 28  2  0
 28 29  1  0
 29 30  1  0
 30 31  2  0
 31 32  1  0
  9  1  1  0
 14 10  1  0
 32 15  2  0
  9  4  1  0
 26 18  1  0
 31 27  1  0
 32  7  1  0
 26 22  1  0
  1 33  1  0
  1 34  1  0
  2 35  1  0
  3 36  1  0
  5 37  1  0
 11 38  1  0
 13 39  1  0
 16 40  1  0
 19 41  1  0
 20 42  1  0
 21 43  1  0
 23 44  1  0
 24 45  1  0
 25 46  1  0
 28 47  1  0
 29 48  1  0
 29 49  1  0
 30 50  1  0
M  END
