
     RDKit          3D

 43 49  0  0  0  0  0  0  0  0999 V2000
   -5.6928   -0.5629    1.3359 C   0  0  0  0  0  0  0  0  0  0  0  0
   -6.9105   -0.0691    0.5917 C   0  0  0  0  0  0  0  0  0  0  0  0
   -6.6017    0.4917   -0.5878 C   0  0  0  0  0  0  0  0  0  0  0  0
   -5.1611    0.4220   -0.7333 C   0  0  0  0  0  0  0  0  0  0  0  0
   -4.3337    0.8432   -1.7365 C   0  0  0  0  0  0  0  0  0  0  0  0
   -2.9905    0.6809   -1.6777 N   0  0  0  0  0  0  0  0  0  0  0  0
   -2.4144    0.0808   -0.5966 C   0  0  0  0  0  0  0  0  0  0  0  0
   -3.2155   -0.3781    0.4781 C   0  0  0  0  0  0  0  0  0  0  0  0
   -2.6379   -0.9959    1.5973 C   0  0  0  0  0  0  0  0  0  0  0  0
   -1.2598   -1.1748    1.6830 C   0  0  0  0  0  0  0  0  0  0  0  0
   -0.4119   -0.7482    0.6628 C   0  0  0  0  0  0  0  0  0  0  0  0
    0.9962   -0.9664    0.8259 C   0  0  0  0  0  0  0  0  0  0  0  0
    1.9830   -0.5948   -0.1105 C   0  0  0  0  0  0  0  0  0  0  0  0
    3.4038   -0.8073    0.0964 C   0  0  0  0  0  0  0  0  0  0  0  0
    4.0339   -2.4209    0.0434 S   0  0  0  0  0  0  0  0  0  0  0  0
    5.6539   -1.9038    0.3418 C   0  0  0  0  0  0  0  0  0  0  0  0
    5.6777   -0.5505    0.4795 C   0  0  0  0  0  0  0  0  0  0  0  0
    6.9878    0.7591    0.8147 Si  0  0  0  0  0  4  0  0  0  0  0  0
    5.6037    2.0776    0.7374 C   0  0  0  0  0  0  0  0  0  0  0  0
    4.3991    1.5154    0.4941 C   0  0  0  0  0  0  0  0  0  0  0  0
    4.4156    0.0887    0.3476 C   0  0  0  0  0  0  0  0  0  0  0  0
    1.4392    0.0210   -1.2442 C   0  0  0  0  0  0  0  0  0  0  0  0
    2.1934    0.4543   -2.3118 C   0  0  0  0  0  0  0  0  0  0  0  0
    1.2234    1.1634   -3.5310 S   0  0  0  0  0  0  0  0  0  0  0  0
   -0.2164    0.8765   -2.6428 C   0  0  0  0  0  0  0  0  0  0  0  0
    0.0184    0.2556   -1.4355 C   0  0  0  0  0  0  0  0  0  0  0  0
   -1.0013   -0.1134   -0.4901 C   0  0  0  0  0  0  0  0  0  0  0  0
   -4.5958   -0.1923    0.3805 C   0  0  0  0  0  0  0  0  0  0  0  0
   -5.7442   -1.6451    1.4863 H   0  0  0  0  0  0  0  0  0  0  0  0
   -5.5854   -0.0406    2.2910 H   0  0  0  0  0  0  0  0  0  0  0  0
   -7.9150   -0.1645    0.9798 H   0  0  0  0  0  0  0  0  0  0  0  0
   -7.2780    0.9203   -1.3095 H   0  0  0  0  0  0  0  0  0  0  0  0
   -4.7092    1.3284   -2.6303 H   0  0  0  0  0  0  0  0  0  0  0  0
   -3.2565   -1.3472    2.4201 H   0  0  0  0  0  0  0  0  0  0  0  0
   -0.8581   -1.6599    2.5716 H   0  0  0  0  0  0  0  0  0  0  0  0
    1.3426   -1.4502    1.7422 H   0  0  0  0  0  0  0  0  0  0  0  0
    6.4606   -2.6221    0.3958 H   0  0  0  0  0  0  0  0  0  0  0  0
    7.5793    0.6878    2.1740 H   0  0  0  0  0  0  0  0  0  0  0  0
    7.9584    0.9408   -0.2931 H   0  0  0  0  0  0  0  0  0  0  0  0
    5.8251    3.1230    0.8798 H   0  0  0  0  0  0  0  0  0  0  0  0
    3.4831    2.0904    0.4131 H   0  0  0  0  0  0  0  0  0  0  0  0
    3.2638    0.3988   -2.4560 H   0  0  0  0  0  0  0  0  0  0  0  0
   -1.1523    1.1883   -3.0821 H   0  0  0  0  0  0  0  0  0  0  0  0
  1  2  1  0
  2  3  2  0
  3  4  1  0
  4  5  2  0
  5  6  1  0
  6  7  2  0
  7  8  1  0
  8  9  1  0
  9 10  2  0
 10 11  1  0
 11 12  1  0
 12 13  2  0
 13 14  1  0
 14 15  1  0
 15 16  1  0
 16 17  2  0
 17 18  1  0
 18 19  1  0
 19 20  2  0
 20 21  1  0
 13 22  1  0
 22 23  2  0
 23 24  1  0
 24 25  1  0
 25 26  2  0
 26 27  1  0
  8 28  2  0
 28  1  1  0
 28  4  1  0
 27  7  1  0
 27 11  2  0
 21 14  2  0
 26 22  1  0
 21 17  1  0
  1 29  1  0
  1 30  1  0
  2 31  1  0
  3 32  1  0
  5 33  1  0
  9 34  1  0
 10 35  1  0
 12 36  1  0
 16 37  1  0
 18 38  1  0
 18 39  1  0
 19 40  1  0
 20 41  1  0
 23 42  1  0
 25 43  1  0
M  END
