
     RDKit          3D

 35 39  0  0  0  0  0  0  0  0999 V2000
   -5.0167    0.9060   -0.2375 C   0  0  0  0  0  0  0  0  0  0  0  0
   -6.1452    0.0356    0.2629 C   0  0  0  0  0  0  0  0  0  0  0  0
   -5.7108   -1.1006    0.8306 C   0  0  0  0  0  0  0  0  0  0  0  0
   -4.2632   -1.0944    0.7536 C   0  0  0  0  0  0  0  0  0  0  0  0
   -3.3289   -2.0031    1.1776 C   0  0  0  0  0  0  0  0  0  0  0  0
   -1.9977   -1.8067    1.0057 N   0  0  0  0  0  0  0  0  0  0  0  0
   -1.5602   -0.6699    0.3914 C   0  0  0  0  0  0  0  0  0  0  0  0
   -2.4646    0.3063   -0.0653 C   0  0  0  0  0  0  0  0  0  0  0  0
   -1.9530    1.4456   -0.6804 C   0  0  0  0  0  0  0  0  0  0  0  0
   -0.6381    1.6738   -0.8724 N   0  0  0  0  0  0  0  0  0  0  0  0
    0.2299    0.7452   -0.4431 C   0  0  0  0  0  0  0  0  0  0  0  0
    1.5847    0.9553   -0.6321 C   0  0  0  0  0  0  0  0  0  0  0  0
    2.5191    0.0183   -0.1959 C   0  0  0  0  0  0  0  0  0  0  0  0
    2.1270   -1.1245    0.4248 N   0  0  0  0  0  0  0  0  0  0  0  0
    0.7996   -1.3193    0.6016 C   0  0  0  0  0  0  0  0  0  0  0  0
   -0.1921   -0.4313    0.1923 C   0  0  0  0  0  0  0  0  0  0  0  0
    3.9777    0.2112   -0.3854 C   0  0  0  0  0  0  0  0  0  0  0  0
    4.9161   -0.7240    0.0585 C   0  0  0  0  0  0  0  0  0  0  0  0
    6.2746   -0.4885   -0.1458 C   0  0  0  0  0  0  0  0  0  0  0  0
    6.6723    0.6752   -0.7892 C   0  0  0  0  0  0  0  0  0  0  0  0
    5.6908    1.5572   -1.2029 C   0  0  0  0  0  0  0  0  0  0  0  0
    4.3674    1.3533   -1.0181 N   0  0  0  0  0  0  0  0  0  0  0  0
   -3.8270    0.0708    0.1286 C   0  0  0  0  0  0  0  0  0  0  0  0
   -5.0062    1.8658    0.2879 H   0  0  0  0  0  0  0  0  0  0  0  0
   -5.0881    1.0539   -1.3192 H   0  0  0  0  0  0  0  0  0  0  0  0
   -7.1864    0.3144    0.1695 H   0  0  0  0  0  0  0  0  0  0  0  0
   -6.3058   -1.8861    1.2668 H   0  0  0  0  0  0  0  0  0  0  0  0
   -3.6062   -2.9268    1.6740 H   0  0  0  0  0  0  0  0  0  0  0  0
   -2.6019    2.2344   -1.0511 H   0  0  0  0  0  0  0  0  0  0  0  0
    1.9124    1.8653   -1.1271 H   0  0  0  0  0  0  0  0  0  0  0  0
    0.5447   -2.2502    1.1043 H   0  0  0  0  0  0  0  0  0  0  0  0
    4.5945   -1.6294    0.5652 H   0  0  0  0  0  0  0  0  0  0  0  0
    7.0125   -1.2075    0.2004 H   0  0  0  0  0  0  0  0  0  0  0  0
    7.7205    0.8905   -0.9620 H   0  0  0  0  0  0  0  0  0  0  0  0
    5.9482    2.4843   -1.7082 H   0  0  0  0  0  0  0  0  0  0  0  0
  1  2  1  0
  2  3  2  0
  3  4  1  0
  4  5  2  0
  5  6  1  0
  6  7  2  0
  7  8  1  0
  8  9  1  0
  9 10  2  0
 10 11  1  0
 11 12  2  0
 12 13  1  0
 13 14  2  0
 14 15  1  0
 15 16  2  0
 13 17  1  0
 17 18  2  0
 18 19  1  0
 19 20  2  0
 20 21  1  0
 21 22  2  0
  8 23  2  0
 23  1  1  0
 23  4  1  0
 16  7  1  0
 22 17  1  0
 16 11  1  0
  1 24  1  0
  1 25  1  0
  2 26  1  0
  3 27  1  0
  5 28  1  0
  9 29  1  0
 12 30  1  0
 15 31  1  0
 18 32  1  0
 19 33  1  0
 20 34  1  0
 21 35  1  0
M  END
