
     RDKit          3D

 36 40  0  0  0  0  0  0  0  0999 V2000
    4.0105    0.0897   -0.0797 C   0  0  0  0  0  0  0  0  0  0  0  0
    5.0506    1.1822   -0.1384 C   0  0  0  0  0  0  0  0  0  0  0  0
    4.5089    2.4082   -0.1744 C   0  0  0  0  0  0  0  0  0  0  0  0
    3.0680    2.2435   -0.1434 C   0  0  0  0  0  0  0  0  0  0  0  0
    2.0709    3.1906   -0.1611 C   0  0  0  0  0  0  0  0  0  0  0  0
    0.7631    2.8579   -0.1266 N   0  0  0  0  0  0  0  0  0  0  0  0
    0.4568    1.5280   -0.0735 C   0  0  0  0  0  0  0  0  0  0  0  0
   -0.9933    1.2571   -0.0440 C   0  0  0  0  0  0  0  0  0  0  0  0
   -1.5059    0.0109    0.0117 C   0  0  0  0  0  0  0  0  0  0  0  0
   -2.9730   -0.1112    0.0258 C   0  0  0  0  0  0  0  0  0  0  0  0
   -3.7115    0.1318    1.1863 C   0  0  0  0  0  0  0  0  0  0  0  0
   -5.0974   -0.0056    1.1617 C   0  0  0  0  0  0  0  0  0  0  0  0
   -5.7000   -0.3865   -0.0269 C   0  0  0  0  0  0  0  0  0  0  0  0
   -5.0219   -0.6346   -1.1681 N   0  0  0  0  0  0  0  0  0  0  0  0
   -3.6756   -0.4892   -1.1154 C   0  0  0  0  0  0  0  0  0  0  0  0
   -0.5823   -1.1224    0.0446 C   0  0  0  0  0  0  0  0  0  0  0  0
   -0.9584   -2.4165    0.1117 C   0  0  0  0  0  0  0  0  0  0  0  0
    0.5069   -3.5623    0.1346 Si  0  0  0  0  0  4  0  0  0  0  0  0
    1.6091   -2.0487    0.0488 C   0  0  0  0  0  0  0  0  0  0  0  0
    0.8902   -0.9069    0.0118 C   0  0  0  0  0  0  0  0  0  0  0  0
    1.4073    0.4795   -0.0502 C   0  0  0  0  0  0  0  0  0  0  0  0
    2.7373    0.8808   -0.0873 C   0  0  0  0  0  0  0  0  0  0  0  0
    4.1219   -0.4855    0.8439 H   0  0  0  0  0  0  0  0  0  0  0  0
    4.0905   -0.5533   -0.9608 H   0  0  0  0  0  0  0  0  0  0  0  0
    6.1129    0.9816   -0.1497 H   0  0  0  0  0  0  0  0  0  0  0  0
    5.0247    3.3538   -0.2188 H   0  0  0  0  0  0  0  0  0  0  0  0
    2.2860    4.2525   -0.2042 H   0  0  0  0  0  0  0  0  0  0  0  0
   -1.6279    2.1382   -0.0766 H   0  0  0  0  0  0  0  0  0  0  0  0
   -3.2129    0.4245    2.1067 H   0  0  0  0  0  0  0  0  0  0  0  0
   -5.6925    0.1794    2.0489 H   0  0  0  0  0  0  0  0  0  0  0  0
   -6.7777   -0.5062   -0.0941 H   0  0  0  0  0  0  0  0  0  0  0  0
   -3.1592   -0.6937   -2.0498 H   0  0  0  0  0  0  0  0  0  0  0  0
   -1.9636   -2.8067    0.1518 H   0  0  0  0  0  0  0  0  0  0  0  0
    0.6539   -4.2840    1.4210 H   0  0  0  0  0  0  0  0  0  0  0  0
    0.6085   -4.3932   -1.0886 H   0  0  0  0  0  0  0  0  0  0  0  0
    2.6751   -2.1838    0.0389 H   0  0  0  0  0  0  0  0  0  0  0  0
  1  2  1  0
  2  3  2  0
  3  4  1  0
  4  5  2  0
  5  6  1  0
  6  7  2  0
  7  8  1  0
  8  9  2  0
  9 10  1  0
 10 11  2  0
 11 12  1  0
 12 13  2  0
 13 14  1  0
 14 15  2  0
  9 16  1  0
 16 17  2  0
 17 18  1  0
 18 19  1  0
 19 20  2  0
 20 21  1  0
 21 22  2  0
 22  1  1  0
 22  4  1  0
 21  7  1  0
 15 10  1  0
 20 16  1  0
  1 23  1  0
  1 24  1  0
  2 25  1  0
  3 26  1  0
  5 27  1  0
  8 28  1  0
 11 29  1  0
 12 30  1  0
 13 31  1  0
 15 32  1  0
 17 33  1  0
 18 34  1  0
 18 35  1  0
 19 36  1  0
M  END
