
     RDKit          3D

 46 53  0  0  0  0  0  0  0  0999 V2000
    4.1391    0.4665   -1.7877 C   0  0  0  0  0  0  0  0  0  0  0  0
    5.5379    0.4372   -2.4096 C   0  0  0  0  0  0  0  0  0  0  0  0
    6.3604   -0.3912   -1.7275 C   0  0  0  0  0  0  0  0  0  0  0  0
    5.6486   -0.9641   -0.6454 C   0  0  0  0  0  0  0  0  0  0  0  0
    5.9443   -1.8288    0.3615 C   0  0  0  0  0  0  0  0  0  0  0  0
    4.5463   -2.0519    1.3468 S   0  0  0  0  0  0  0  0  0  0  0  0
    3.5671   -0.9844    0.3880 C   0  0  0  0  0  0  0  0  0  0  0  0
    4.3171   -0.4819   -0.6480 C   0  0  0  0  0  0  0  0  0  0  0  0
    2.1923   -0.7297    0.7163 C   0  0  0  0  0  0  0  0  0  0  0  0
    1.5110   -0.8848    1.9109 C   0  0  0  0  0  0  0  0  0  0  0  0
    0.1684   -0.5165    1.6786 C   0  0  0  0  0  0  0  0  0  0  0  0
    0.0504   -0.0726    0.3723 C   0  0  0  0  0  0  0  0  0  0  0  0
    1.2706   -0.2983   -0.2141 N   0  0  0  0  0  0  0  0  0  0  0  0
   -1.2054    0.3516   -0.2494 C   0  0  0  0  0  0  0  0  0  0  0  0
   -1.3679    0.8938   -1.5389 C   0  0  0  0  0  0  0  0  0  0  0  0
   -0.3563    1.3349   -2.3677 C   0  0  0  0  0  0  0  0  0  0  0  0
   -0.9355    1.9314   -3.8855 S   0  0  0  0  0  0  0  0  0  0  0  0
   -2.5748    1.6773   -3.4396 C   0  0  0  0  0  0  0  0  0  0  0  0
   -2.6073    1.1566   -2.1793 C   0  0  0  0  0  0  0  0  0  0  0  0
   -3.7957    0.8426   -1.4578 C   0  0  0  0  0  0  0  0  0  0  0  0
   -5.1246    0.9596   -1.8673 C   0  0  0  0  0  0  0  0  0  0  0  0
   -5.8601    0.5049   -0.7956 C   0  0  0  0  0  0  0  0  0  0  0  0
   -4.9900    0.1399    0.2094 N   0  0  0  0  0  0  0  0  0  0  0  0
   -3.6768    0.3685   -0.1585 C   0  0  0  0  0  0  0  0  0  0  0  0
   -2.4284    0.1766    0.4972 C   0  0  0  0  0  0  0  0  0  0  0  0
   -2.3134   -0.1975    1.9456 C   0  0  0  0  0  0  0  0  0  0  0  0
   -3.2932   -0.1689    2.8771 C   0  0  0  0  0  0  0  0  0  0  0  0
   -2.6681   -0.6808    4.5718 Si  0  0  0  0  0  4  0  0  0  0  0  0
   -0.9753   -0.8452    3.8424 C   0  0  0  0  0  0  0  0  0  0  0  0
   -0.9770   -0.5511    2.5277 C   0  0  0  0  0  0  0  0  0  0  0  0
    3.8873    1.4735   -1.4437 H   0  0  0  0  0  0  0  0  0  0  0  0
    3.3953    0.1086   -2.5049 H   0  0  0  0  0  0  0  0  0  0  0  0
    5.8158    1.0115   -3.2809 H   0  0  0  0  0  0  0  0  0  0  0  0
    7.3976   -0.5881   -1.9592 H   0  0  0  0  0  0  0  0  0  0  0  0
    6.8727   -2.3325    0.5893 H   0  0  0  0  0  0  0  0  0  0  0  0
    1.9340   -1.2482    2.8380 H   0  0  0  0  0  0  0  0  0  0  0  0
    1.4640   -0.2295   -1.1994 H   0  0  0  0  0  0  0  0  0  0  0  0
    0.7058    1.3908   -2.1983 H   0  0  0  0  0  0  0  0  0  0  0  0
   -3.3827    1.9359   -4.1091 H   0  0  0  0  0  0  0  0  0  0  0  0
   -5.5213    1.3075   -2.8110 H   0  0  0  0  0  0  0  0  0  0  0  0
   -6.9276    0.3936   -0.6596 H   0  0  0  0  0  0  0  0  0  0  0  0
   -5.2779   -0.2890    1.0750 H   0  0  0  0  0  0  0  0  0  0  0  0
   -4.3181    0.1352    2.7882 H   0  0  0  0  0  0  0  0  0  0  0  0
   -3.2498   -1.9758    4.9997 H   0  0  0  0  0  0  0  0  0  0  0  0
   -2.7778    0.4215    5.5568 H   0  0  0  0  0  0  0  0  0  0  0  0
   -0.1210   -1.1088    4.4450 H   0  0  0  0  0  0  0  0  0  0  0  0
  1  2  1  0
  2  3  2  0
  3  4  1  0
  4  5  2  0
  5  6  1  0
  6  7  1  0
  7  8  2  0
  7  9  1  0
  9 10  2  0
 10 11  1  0
 11 12  2  0
 12 13  1  0
 12 14  1  0
 14 15  1  0
 15 16  2  0
 16 17  1  0
 17 18  1  0
 18 19  2  0
 19 20  1  0
 20 21  1  0
 21 22  2  0
 22 23  1  0
 23 24  1  0
 24 25  1  0
 25 26  1  0
 26 27  2  0
 27 28  1  0
 28 29  1  0
 29 30  2  0
  8  1  1  0
 13  9  1  0
 25 14  2  0
 30 26  1  0
  8  4  1  0
 30 11  1  0
 19 15  1  0
 24 20  2  0
  1 31  1  0
  1 32  1  0
  2 33  1  0
  3 34  1  0
  5 35  1  0
 10 36  1  0
 13 37  1  0
 16 38  1  0
 18 39  1  0
 21 40  1  0
 22 41  1  0
 23 42  1  0
 27 43  1  0
 28 44  1  0
 28 45  1  0
 29 46  1  0
M  END
