
     RDKit          3D

 49 56  0  0  0  0  0  0  0  0999 V2000
    5.1366    1.7824    0.5719 C   0  0  0  0  0  0  0  0  0  0  0  0
    6.6407    2.0404    0.7318 C   0  0  0  0  0  0  0  0  0  0  0  0
    7.3448    0.8860    0.6961 C   0  0  0  0  0  0  0  0  0  0  0  0
    6.4502   -0.1976    0.5210 C   0  0  0  0  0  0  0  0  0  0  0  0
    6.5599   -1.5479    0.4139 C   0  0  0  0  0  0  0  0  0  0  0  0
    4.9887   -2.2310    0.2108 S   0  0  0  0  0  0  0  0  0  0  0  0
    4.1808   -0.6898    0.2751 C   0  0  0  0  0  0  0  0  0  0  0  0
    5.1282    0.2950    0.4435 C   0  0  0  0  0  0  0  0  0  0  0  0
    2.7199   -0.5616    0.1523 C   0  0  0  0  0  0  0  0  0  0  0  0
    1.8431   -1.6297    0.0797 C   0  0  0  0  0  0  0  0  0  0  0  0
    0.4582   -1.3647   -0.0388 C   0  0  0  0  0  0  0  0  0  0  0  0
   -0.5597   -2.3422   -0.0730 C   0  0  0  0  0  0  0  0  0  0  0  0
   -0.3749   -3.7043   -0.0476 C   0  0  0  0  0  0  0  0  0  0  0  0
   -1.6177   -4.2828   -0.1087 N   0  0  0  0  0  0  0  0  0  0  0  0
   -2.5888   -3.3060   -0.1658 C   0  0  0  0  0  0  0  0  0  0  0  0
   -1.9691   -2.0779   -0.1065 C   0  0  0  0  0  0  0  0  0  0  0  0
   -2.5345   -0.7916   -0.1422 C   0  0  0  0  0  0  0  0  0  0  0  0
   -3.9560   -0.4359    0.0359 C   0  0  0  0  0  0  0  0  0  0  0  0
   -5.3121   -1.5026    0.7775 Si  0  0  0  0  0  4  0  0  0  0  0  0
   -6.4693   -0.0488    0.7037 C   0  0  0  0  0  0  0  0  0  0  0  0
   -5.8339    1.0275    0.2122 C   0  0  0  0  0  0  0  0  0  0  0  0
   -4.4200    0.8334   -0.1373 C   0  0  0  0  0  0  0  0  0  0  0  0
   -3.4971    1.8527   -0.6102 C   0  0  0  0  0  0  0  0  0  0  0  0
   -3.8746    3.0675   -1.0606 C   0  0  0  0  0  0  0  0  0  0  0  0
   -2.4403    4.0167   -1.7600 Si  0  0  0  0  0  4  0  0  0  0  0  0
   -1.3643    2.5378   -1.3722 C   0  0  0  0  0  0  0  0  0  0  0  0
   -2.0426    1.5657   -0.7215 C   0  0  0  0  0  0  0  0  0  0  0  0
   -1.5077    0.2217   -0.3020 C   0  0  0  0  0  0  0  0  0  0  0  0
   -0.0651   -0.0448   -0.1296 C   0  0  0  0  0  0  0  0  0  0  0  0
    0.9361    0.9278    0.0153 C   0  0  0  0  0  0  0  0  0  0  0  0
    2.2765    0.7154    0.1386 N   0  0  0  0  0  0  0  0  0  0  0  0
    4.5912    2.1199    1.4576 H   0  0  0  0  0  0  0  0  0  0  0  0
    4.7556    2.2735   -0.3277 H   0  0  0  0  0  0  0  0  0  0  0  0
    7.0628    3.0263    0.8555 H   0  0  0  0  0  0  0  0  0  0  0  0
    8.4178    0.7951    0.7861 H   0  0  0  0  0  0  0  0  0  0  0  0
    7.4414   -2.1723    0.4393 H   0  0  0  0  0  0  0  0  0  0  0  0
    2.1973   -2.6514    0.1271 H   0  0  0  0  0  0  0  0  0  0  0  0
    0.5114   -4.3226   -0.0082 H   0  0  0  0  0  0  0  0  0  0  0  0
   -1.7954   -5.2791   -0.1335 H   0  0  0  0  0  0  0  0  0  0  0  0
   -3.6157   -3.6163   -0.2756 H   0  0  0  0  0  0  0  0  0  0  0  0
   -5.7703   -2.5949   -0.1193 H   0  0  0  0  0  0  0  0  0  0  0  0
   -5.0400   -1.9211    2.1755 H   0  0  0  0  0  0  0  0  0  0  0  0
   -7.4971   -0.1063    1.0241 H   0  0  0  0  0  0  0  0  0  0  0  0
   -6.3146    1.9898    0.0920 H   0  0  0  0  0  0  0  0  0  0  0  0
   -4.8740    3.4678   -1.1090 H   0  0  0  0  0  0  0  0  0  0  0  0
   -2.5667    4.2575   -3.2173 H   0  0  0  0  0  0  0  0  0  0  0  0
   -2.0823    5.2005   -0.9423 H   0  0  0  0  0  0  0  0  0  0  0  0
   -0.3429    2.5421   -1.7120 H   0  0  0  0  0  0  0  0  0  0  0  0
    0.6854    1.9812    0.0945 H   0  0  0  0  0  0  0  0  0  0  0  0
  1  2  1  0
  2  3  2  0
  3  4  1  0
  4  5  2  0
  5  6  1  0
  6  7  1  0
  7  8  2  0
  7  9  1  0
  9 10  2  0
 10 11  1  0
 11 12  1  0
 12 13  2  0
 13 14  1  0
 14 15  1  0
 15 16  2  0
 16 17  1  0
 17 18  1  0
 18 19  1  0
 19 20  1  0
 20 21  2  0
 21 22  1  0
 22 23  1  0
 23 24  2  0
 24 25  1  0
 25 26  1  0
 26 27  2  0
 27 28  1  0
 28 29  1  0
 29 30  1  0
 30 31  2  0
  8  1  1  0
 31  9  1  0
  8  4  1  0
 29 11  2  0
 16 12  1  0
 28 17  2  0
 22 18  2  0
 27 23  1  0
  1 32  1  0
  1 33  1  0
  2 34  1  0
  3 35  1  0
  5 36  1  0
 10 37  1  0
 13 38  1  0
 14 39  1  0
 15 40  1  0
 19 41  1  0
 19 42  1  0
 20 43  1  0
 21 44  1  0
 24 45  1  0
 25 46  1  0
 25 47  1  0
 26 48  1  0
 30 49  1  0
M  END
