
     RDKit          3D

 39 45  0  0  0  0  0  0  0  0999 V2000
   -4.2729   -1.6650   -0.5156 C   0  0  0  0  0  0  0  0  0  0  0  0
   -5.7716   -1.9634   -0.6194 C   0  0  0  0  0  0  0  0  0  0  0  0
   -6.5099   -0.9384   -0.1397 C   0  0  0  0  0  0  0  0  0  0  0  0
   -5.6430    0.0881    0.3072 C   0  0  0  0  0  0  0  0  0  0  0  0
   -5.8082    1.3151    0.8665 C   0  0  0  0  0  0  0  0  0  0  0  0
   -4.2637    2.0183    1.1529 S   0  0  0  0  0  0  0  0  0  0  0  0
   -3.3883    0.6489    0.5142 C   0  0  0  0  0  0  0  0  0  0  0  0
   -4.2962   -0.3023    0.1022 C   0  0  0  0  0  0  0  0  0  0  0  0
   -1.9376    0.6362    0.4782 C   0  0  0  0  0  0  0  0  0  0  0  0
   -1.0729    1.6279    0.9126 C   0  0  0  0  0  0  0  0  0  0  0  0
    0.2631    1.2453    0.7097 C   0  0  0  0  0  0  0  0  0  0  0  0
    1.4075    2.0203    1.0391 C   0  0  0  0  0  0  0  0  0  0  0  0
    1.4838    3.2551    1.6010 C   0  0  0  0  0  0  0  0  0  0  0  0
    2.8102    3.5670    1.7151 O   0  0  0  0  0  0  0  0  0  0  0  0
    3.5261    2.5060    1.2157 C   0  0  0  0  0  0  0  0  0  0  0  0
    2.6881    1.5022    0.7754 C   0  0  0  0  0  0  0  0  0  0  0  0
    3.0073    0.2618    0.2025 C   0  0  0  0  0  0  0  0  0  0  0  0
    4.2915   -0.2767   -0.0706 C   0  0  0  0  0  0  0  0  0  0  0  0
    5.8658    0.3951    0.2023 S   0  0  0  0  0  0  0  0  0  0  0  0
    6.6728   -0.9564   -0.4317 C   0  0  0  0  0  0  0  0  0  0  0  0
    5.7937   -1.9203   -0.8528 C   0  0  0  0  0  0  0  0  0  0  0  0
    4.4195   -1.5497   -0.6542 C   0  0  0  0  0  0  0  0  0  0  0  0
    3.2494   -2.2821   -0.9635 C   0  0  0  0  0  0  0  0  0  0  0  0
    1.9797   -1.7651   -0.7005 C   0  0  0  0  0  0  0  0  0  0  0  0
    1.8314   -0.5010   -0.1205 C   0  0  0  0  0  0  0  0  0  0  0  0
    0.4994    0.0068    0.1395 C   0  0  0  0  0  0  0  0  0  0  0  0
   -1.0556   -0.7053   -0.1525 S   0  0  0  0  0  0  0  0  0  0  0  0
   -3.7831   -2.3990    0.1303 H   0  0  0  0  0  0  0  0  0  0  0  0
   -3.8174   -1.6561   -1.5097 H   0  0  0  0  0  0  0  0  0  0  0  0
   -6.1688   -2.8812   -1.0268 H   0  0  0  0  0  0  0  0  0  0  0  0
   -7.5893   -0.8989   -0.0993 H   0  0  0  0  0  0  0  0  0  0  0  0
   -6.7179    1.8391    1.1229 H   0  0  0  0  0  0  0  0  0  0  0  0
   -1.3965    2.5650    1.3471 H   0  0  0  0  0  0  0  0  0  0  0  0
    0.7870    4.0003    1.9559 H   0  0  0  0  0  0  0  0  0  0  0  0
    4.5948    2.6511    1.2592 H   0  0  0  0  0  0  0  0  0  0  0  0
    7.7533   -0.9843   -0.4676 H   0  0  0  0  0  0  0  0  0  0  0  0
    6.1118   -2.8597   -1.2883 H   0  0  0  0  0  0  0  0  0  0  0  0
    3.3372   -3.2682   -1.4153 H   0  0  0  0  0  0  0  0  0  0  0  0
    1.1193   -2.3765   -0.9611 H   0  0  0  0  0  0  0  0  0  0  0  0
  1  2  1  0
  2  3  2  0
  3  4  1  0
  4  5  2  0
  5  6  1  0
  6  7  1  0
  7  8  2  0
  7  9  1  0
  9 10  2  0
 10 11  1  0
 11 12  1  0
 12 13  2  0
 13 14  1  0
 14 15  1  0
 15 16  2  0
 16 17  1  0
 17 18  2  0
 18 19  1  0
 19 20  1  0
 20 21  2  0
 21 22  1  0
 22 23  2  0
 23 24  1  0
 24 25  2  0
 25 26  1  0
 26 27  1  0
  8  1  1  0
 27  9  1  0
  8  4  1  0
 26 11  2  0
 16 12  1  0
 25 17  1  0
 22 18  1  0
  1 28  1  0
  1 29  1  0
  2 30  1  0
  3 31  1  0
  5 32  1  0
 10 33  1  0
 13 34  1  0
 15 35  1  0
 20 36  1  0
 21 37  1  0
 23 38  1  0
 24 39  1  0
M  END
