
     RDKit          3D

 40 46  0  0  0  0  0  0  0  0999 V2000
    4.7392   -0.8952   -0.3719 C   0  0  0  0  0  0  0  0  0  0  0  0
    6.1796   -0.3723   -0.3863 C   0  0  0  0  0  0  0  0  0  0  0  0
    6.2127    0.9779   -0.3230 C   0  0  0  0  0  0  0  0  0  0  0  0
    4.8868    1.4721   -0.2633 C   0  0  0  0  0  0  0  0  0  0  0  0
    4.3104    2.7015   -0.1892 C   0  0  0  0  0  0  0  0  0  0  0  0
    2.5949    2.5227   -0.1510 S   0  0  0  0  0  0  0  0  0  0  0  0
    2.6659    0.7867   -0.2354 C   0  0  0  0  0  0  0  0  0  0  0  0
    3.9782    0.3868   -0.2902 C   0  0  0  0  0  0  0  0  0  0  0  0
    1.4774   -0.0215   -0.2414 C   0  0  0  0  0  0  0  0  0  0  0  0
    1.3316   -1.3942   -0.3027 C   0  0  0  0  0  0  0  0  0  0  0  0
   -0.0470   -1.6207   -0.2756 C   0  0  0  0  0  0  0  0  0  0  0  0
   -0.7135   -2.8817   -0.3171 C   0  0  0  0  0  0  0  0  0  0  0  0
   -0.0634   -4.0333   -0.3895 N   0  0  0  0  0  0  0  0  0  0  0  0
   -1.3147   -5.1469   -0.4077 S   0  0  0  0  0  0  0  0  0  0  0  0
   -2.6386   -4.1258   -0.3228 N   0  0  0  0  0  0  0  0  0  0  0  0
   -2.1625   -2.8604   -0.2761 C   0  0  0  0  0  0  0  0  0  0  0  0
   -2.9096   -1.6535   -0.1984 C   0  0  0  0  0  0  0  0  0  0  0  0
   -4.3819   -1.7201   -0.1606 C   0  0  0  0  0  0  0  0  0  0  0  0
   -5.1229   -0.6035   -0.0873 C   0  0  0  0  0  0  0  0  0  0  0  0
   -4.4864    0.6951   -0.0439 C   0  0  0  0  0  0  0  0  0  0  0  0
   -5.1779    1.8480    0.0293 C   0  0  0  0  0  0  0  0  0  0  0  0
   -4.0406    3.3159    0.0660 Si  0  0  0  0  0  4  0  0  0  0  0  0
   -2.5912    2.1183   -0.0305 C   0  0  0  0  0  0  0  0  0  0  0  0
   -3.0025    0.8330   -0.0788 C   0  0  0  0  0  0  0  0  0  0  0  0
   -2.1920   -0.4125   -0.1597 C   0  0  0  0  0  0  0  0  0  0  0  0
   -0.7778   -0.4468   -0.2000 C   0  0  0  0  0  0  0  0  0  0  0  0
    0.2053    0.5224   -0.1807 N   0  0  0  0  0  0  0  0  0  0  0  0
    4.5188   -1.4424   -1.2927 H   0  0  0  0  0  0  0  0  0  0  0  0
    4.5678   -1.5279    0.5034 H   0  0  0  0  0  0  0  0  0  0  0  0
    7.0450   -1.0158   -0.4405 H   0  0  0  0  0  0  0  0  0  0  0  0
    7.1031    1.5906   -0.3182 H   0  0  0  0  0  0  0  0  0  0  0  0
    4.7716    3.6781   -0.1553 H   0  0  0  0  0  0  0  0  0  0  0  0
    2.1186   -2.1335   -0.3594 H   0  0  0  0  0  0  0  0  0  0  0  0
   -4.8574   -2.6957   -0.1933 H   0  0  0  0  0  0  0  0  0  0  0  0
   -6.2063   -0.6622   -0.0598 H   0  0  0  0  0  0  0  0  0  0  0  0
   -6.2498    1.9635    0.0645 H   0  0  0  0  0  0  0  0  0  0  0  0
   -4.1416    4.1587   -1.1492 H   0  0  0  0  0  0  0  0  0  0  0  0
   -4.0714    4.0415    1.3583 H   0  0  0  0  0  0  0  0  0  0  0  0
   -1.6059    2.5383   -0.0388 H   0  0  0  0  0  0  0  0  0  0  0  0
    0.0478    1.5149   -0.1288 H   0  0  0  0  0  0  0  0  0  0  0  0
  1  2  1  0
  2  3  2  0
  3  4  1  0
  4  5  2  0
  5  6  1  0
  6  7  1  0
  7  8  2  0
  7  9  1  0
  9 10  2  0
 10 11  1  0
 11 12  1  0
 12 13  2  0
 13 14  1  0
 14 15  1  0
 15 16  2  0
 16 17  1  0
 17 18  1  0
 18 19  2  0
 19 20  1  0
 20 21  2  0
 21 22  1  0
 22 23  1  0
 23 24  2  0
 24 25  1  0
 25 26  1  0
 26 27  1  0
  8  1  1  0
 27  9  1  0
  8  4  1  0
 26 11  2  0
 16 12  1  0
 25 17  2  0
 24 20  1  0
  1 28  1  0
  1 29  1  0
  2 30  1  0
  3 31  1  0
  5 32  1  0
 10 33  1  0
 18 34  1  0
 19 35  1  0
 21 36  1  0
 22 37  1  0
 22 38  1  0
 23 39  1  0
 27 40  1  0
M  END
