
     RDKit          3D

 47 54  0  0  0  0  0  0  0  0999 V2000
    2.5456    1.3212    4.2105 Si  0  0  0  0  0  4  0  0  0  0  0  0
    3.6839    1.1110    2.7596 C   0  0  0  0  0  0  0  0  0  0  0  0
    3.0125    0.6945    1.6696 C   0  0  0  0  0  0  0  0  0  0  0  0
    3.5546    0.4322    0.3878 C   0  0  0  0  0  0  0  0  0  0  0  0
    2.7608    0.0041   -0.6720 C   0  0  0  0  0  0  0  0  0  0  0  0
    3.5674   -0.1615   -1.7806 N   0  0  0  0  0  0  0  0  0  0  0  0
    4.8570    0.1555   -1.4266 C   0  0  0  0  0  0  0  0  0  0  0  0
    6.1752    0.2454   -1.9182 C   0  0  0  0  0  0  0  0  0  0  0  0
    6.8830    0.6696   -0.8149 C   0  0  0  0  0  0  0  0  0  0  0  0
    6.1016    0.8407    0.2913 O   0  0  0  0  0  0  0  0  0  0  0  0
    4.8507    0.5124   -0.1241 C   0  0  0  0  0  0  0  0  0  0  0  0
    1.3209   -0.2057   -0.5430 C   0  0  0  0  0  0  0  0  0  0  0  0
    0.4198   -0.6362   -1.5226 C   0  0  0  0  0  0  0  0  0  0  0  0
    0.6333   -0.9800   -2.8336 C   0  0  0  0  0  0  0  0  0  0  0  0
   -0.5423   -1.3576   -3.4221 O   0  0  0  0  0  0  0  0  0  0  0  0
   -1.5234   -1.2579   -2.4800 C   0  0  0  0  0  0  0  0  0  0  0  0
   -0.9865   -0.8113   -1.2998 C   0  0  0  0  0  0  0  0  0  0  0  0
   -1.6580   -0.5837   -0.0957 C   0  0  0  0  0  0  0  0  0  0  0  0
   -0.7519   -0.1569    0.9121 C   0  0  0  0  0  0  0  0  0  0  0  0
    0.6681    0.0343    0.7244 C   0  0  0  0  0  0  0  0  0  0  0  0
    1.5432    0.4977    1.8586 C   0  0  0  0  0  0  0  0  0  0  0  0
    1.1254    0.7758    3.1137 C   0  0  0  0  0  0  0  0  0  0  0  0
   -3.0732   -0.7776    0.1135 C   0  0  0  0  0  0  0  0  0  0  0  0
   -3.6334   -1.7847    0.9450 C   0  0  0  0  0  0  0  0  0  0  0  0
   -5.0458   -1.9760    1.1563 C   0  0  0  0  0  0  0  0  0  0  0  0
   -6.0526   -1.1786    0.5667 C   0  0  0  0  0  0  0  0  0  0  0  0
   -5.4862   -0.1945   -0.2316 C   0  0  0  0  0  0  0  0  0  0  0  0
   -6.1719    0.7589   -0.9384 C   0  0  0  0  0  0  0  0  0  0  0  0
   -5.2297    1.5387   -1.5757 N   0  0  0  0  0  0  0  0  0  0  0  0
   -3.9583    1.0910   -1.2806 C   0  0  0  0  0  0  0  0  0  0  0  0
   -4.0893    0.0032   -0.4509 C   0  0  0  0  0  0  0  0  0  0  0  0
    2.4062    2.7342    4.6380 H   0  0  0  0  0  0  0  0  0  0  0  0
    2.8095    0.3503    5.2998 H   0  0  0  0  0  0  0  0  0  0  0  0
    4.7422    1.3101    2.8282 H   0  0  0  0  0  0  0  0  0  0  0  0
    3.3121   -0.4588   -2.7108 H   0  0  0  0  0  0  0  0  0  0  0  0
    6.5589    0.0393   -2.9056 H   0  0  0  0  0  0  0  0  0  0  0  0
    7.9302    0.8915   -0.6583 H   0  0  0  0  0  0  0  0  0  0  0  0
    1.4839   -1.0278   -3.4933 H   0  0  0  0  0  0  0  0  0  0  0  0
   -2.5163   -1.5339   -2.8074 H   0  0  0  0  0  0  0  0  0  0  0  0
   -1.1813    0.0457    1.8927 H   0  0  0  0  0  0  0  0  0  0  0  0
    0.1308    0.7218    3.5222 H   0  0  0  0  0  0  0  0  0  0  0  0
   -2.9549   -2.4702    1.4559 H   0  0  0  0  0  0  0  0  0  0  0  0
   -5.3538   -2.7894    1.8143 H   0  0  0  0  0  0  0  0  0  0  0  0
   -7.1092   -1.3282    0.7333 H   0  0  0  0  0  0  0  0  0  0  0  0
   -7.2273    0.9666   -1.0491 H   0  0  0  0  0  0  0  0  0  0  0  0
   -5.4392    2.3310   -2.1690 H   0  0  0  0  0  0  0  0  0  0  0  0
   -3.0922    1.5938   -1.6897 H   0  0  0  0  0  0  0  0  0  0  0  0
  1  2  1  0
  2  3  2  0
  3  4  1  0
  4  5  2  0
  5  6  1  0
  6  7  1  0
  7  8  1  0
  8  9  2  0
  9 10  1  0
 10 11  1  0
  5 12  1  0
 12 13  1  0
 13 14  2  0
 14 15  1  0
 15 16  1  0
 16 17  2  0
 17 18  1  0
 18 19  2  0
 19 20  1  0
 20 21  1  0
 21 22  2  0
 18 23  1  0
 23 24  2  0
 24 25  1  0
 25 26  2  0
 26 27  1  0
 27 28  2  0
 28 29  1  0
 29 30  1  0
 30 31  2  0
 22  1  1  0
 31 23  1  0
 21  3  1  0
 31 27  1  0
 11  4  1  0
 20 12  2  0
 11  7  2  0
 17 13  1  0
  1 32  1  0
  1 33  1  0
  2 34  1  0
  6 35  1  0
  8 36  1  0
  9 37  1  0
 14 38  1  0
 16 39  1  0
 19 40  1  0
 22 41  1  0
 24 42  1  0
 25 43  1  0
 26 44  1  0
 28 45  1  0
 29 46  1  0
 30 47  1  0
M  END
