
     RDKit          3D

 48 55  0  0  0  0  0  0  0  0999 V2000
    4.9953    0.4745    1.5922 C   0  0  0  0  0  0  0  0  0  0  0  0
    6.4991    0.7422    1.7264 C   0  0  0  0  0  0  0  0  0  0  0  0
    7.1263    0.6393    0.5321 C   0  0  0  0  0  0  0  0  0  0  0  0
    6.1751    0.3137   -0.4654 C   0  0  0  0  0  0  0  0  0  0  0  0
    6.2024    0.0858   -1.8059 C   0  0  0  0  0  0  0  0  0  0  0  0
    4.6051   -0.2737   -2.3581 S   0  0  0  0  0  0  0  0  0  0  0  0
    3.9059   -0.1037   -0.7712 C   0  0  0  0  0  0  0  0  0  0  0  0
    4.8970    0.2085    0.1276 C   0  0  0  0  0  0  0  0  0  0  0  0
    2.5067   -0.3069   -0.5556 C   0  0  0  0  0  0  0  0  0  0  0  0
    1.6751    0.6698   -0.9725 C   0  0  0  0  0  0  0  0  0  0  0  0
    0.2114    0.6098   -0.7834 C   0  0  0  0  0  0  0  0  0  0  0  0
   -0.5640    1.6514   -1.2514 C   0  0  0  0  0  0  0  0  0  0  0  0
   -1.9012    1.7039   -1.1251 N   0  0  0  0  0  0  0  0  0  0  0  0
   -2.5455    0.6880   -0.5076 C   0  0  0  0  0  0  0  0  0  0  0  0
   -1.8567   -0.4353    0.0135 C   0  0  0  0  0  0  0  0  0  0  0  0
   -2.5259   -1.4397    0.6308 N   0  0  0  0  0  0  0  0  0  0  0  0
   -3.8684   -1.3840    0.7564 C   0  0  0  0  0  0  0  0  0  0  0  0
   -4.6603   -0.3525    0.2954 C   0  0  0  0  0  0  0  0  0  0  0  0
   -6.0872   -0.4057    0.4894 C   0  0  0  0  0  0  0  0  0  0  0  0
   -6.9908    0.5848    0.0638 C   0  0  0  0  0  0  0  0  0  0  0  0
   -6.3332    1.6298   -0.5723 C   0  0  0  0  0  0  0  0  0  0  0  0
   -7.0225    2.7084   -1.0701 C   0  0  0  0  0  0  0  0  0  0  0  0
   -5.9619    3.8398   -1.7995 S   0  0  0  0  0  0  0  0  0  0  0  0
   -4.5817    2.8778   -1.4448 C   0  0  0  0  0  0  0  0  0  0  0  0
   -4.9042    1.7135   -0.7831 C   0  0  0  0  0  0  0  0  0  0  0  0
   -3.9640    0.7127   -0.3562 C   0  0  0  0  0  0  0  0  0  0  0  0
   -0.4487   -0.4608   -0.1371 C   0  0  0  0  0  0  0  0  0  0  0  0
    0.4495   -1.5631    0.3415 C   0  0  0  0  0  0  0  0  0  0  0  0
    0.0870   -2.7005    0.9735 C   0  0  0  0  0  0  0  0  0  0  0  0
    1.5399   -3.7970    1.3654 Si  0  0  0  0  0  4  0  0  0  0  0  0
    2.6300   -2.5183    0.5731 C   0  0  0  0  0  0  0  0  0  0  0  0
    1.9196   -1.4639    0.1182 C   0  0  0  0  0  0  0  0  0  0  0  0
    4.4162    1.3541    1.8863 H   0  0  0  0  0  0  0  0  0  0  0  0
    4.7023   -0.3954    2.1863 H   0  0  0  0  0  0  0  0  0  0  0  0
    6.9787    0.9809    2.6639 H   0  0  0  0  0  0  0  0  0  0  0  0
    8.1833    0.7808    0.3567 H   0  0  0  0  0  0  0  0  0  0  0  0
    7.0369    0.1010   -2.4920 H   0  0  0  0  0  0  0  0  0  0  0  0
    2.0699    1.5562   -1.4640 H   0  0  0  0  0  0  0  0  0  0  0  0
   -0.1268    2.5074   -1.7592 H   0  0  0  0  0  0  0  0  0  0  0  0
   -4.2974   -2.2436    1.2667 H   0  0  0  0  0  0  0  0  0  0  0  0
   -6.5117   -1.2717    1.0024 H   0  0  0  0  0  0  0  0  0  0  0  0
   -8.0586    0.5162    0.2243 H   0  0  0  0  0  0  0  0  0  0  0  0
   -8.0861    2.9029   -1.0509 H   0  0  0  0  0  0  0  0  0  0  0  0
   -3.6143    3.2449   -1.7546 H   0  0  0  0  0  0  0  0  0  0  0  0
   -0.9019   -3.0234    1.2514 H   0  0  0  0  0  0  0  0  0  0  0  0
    1.5173   -5.0735    0.6113 H   0  0  0  0  0  0  0  0  0  0  0  0
    1.7861   -3.9210    2.8228 H   0  0  0  0  0  0  0  0  0  0  0  0
    3.6970   -2.6642    0.5083 H   0  0  0  0  0  0  0  0  0  0  0  0
  1  2  1  0
  2  3  2  0
  3  4  1  0
  4  5  2  0
  5  6  1  0
  6  7  1  0
  7  8  2  0
  7  9  1  0
  9 10  2  0
 10 11  1  0
 11 12  2  0
 12 13  1  0
 13 14  2  0
 14 15  1  0
 15 16  1  0
 16 17  2  0
 17 18  1  0
 18 19  1  0
 19 20  2  0
 20 21  1  0
 21 22  2  0
 22 23  1  0
 23 24  1  0
 24 25  2  0
 25 26  1  0
 15 27  2  0
 27 28  1  0
 28 29  2  0
 29 30  1  0
 30 31  1  0
 31 32  2  0
  8  1  1  0
 32  9  1  0
  8  4  1  0
 27 11  1  0
 32 28  1  0
 26 14  1  0
 26 18  2  0
 25 21  1  0
  1 33  1  0
  1 34  1  0
  2 35  1  0
  3 36  1  0
  5 37  1  0
 10 38  1  0
 12 39  1  0
 17 40  1  0
 19 41  1  0
 20 42  1  0
 22 43  1  0
 24 44  1  0
 29 45  1  0
 30 46  1  0
 30 47  1  0
 31 48  1  0
M  END
