
     RDKit          3D

 36 41  0  0  0  0  0  0  0  0999 V2000
    4.5307   -1.4477    0.8417 C   0  0  0  0  0  0  0  0  0  0  0  0
    6.0336   -1.4680    1.1321 C   0  0  0  0  0  0  0  0  0  0  0  0
    6.5252   -0.2155    1.2575 C   0  0  0  0  0  0  0  0  0  0  0  0
    5.4737    0.7154    1.0763 C   0  0  0  0  0  0  0  0  0  0  0  0
    5.3702    2.0698    1.0888 C   0  0  0  0  0  0  0  0  0  0  0  0
    3.7358    2.5140    0.7830 S   0  0  0  0  0  0  0  0  0  0  0  0
    3.1869    0.8637    0.6369 C   0  0  0  0  0  0  0  0  0  0  0  0
    4.2629    0.0236    0.8252 C   0  0  0  0  0  0  0  0  0  0  0  0
    1.8049    0.5170    0.3609 C   0  0  0  0  0  0  0  0  0  0  0  0
    1.2732   -0.7517    0.2294 C   0  0  0  0  0  0  0  0  0  0  0  0
   -0.1253   -0.7604   -0.0424 C   0  0  0  0  0  0  0  0  0  0  0  0
   -0.8685   -1.8835   -0.2117 N   0  0  0  0  0  0  0  0  0  0  0  0
   -2.1814   -1.6886   -0.4624 C   0  0  0  0  0  0  0  0  0  0  0  0
   -2.8459   -0.4584   -0.5641 C   0  0  0  0  0  0  0  0  0  0  0  0
   -2.0480    0.6809   -0.3838 C   0  0  0  0  0  0  0  0  0  0  0  0
   -2.6592    1.9322   -0.4747 C   0  0  0  0  0  0  0  0  0  0  0  0
   -3.9746    2.1146   -0.7261 N   0  0  0  0  0  0  0  0  0  0  0  0
   -4.7468    1.0322   -0.9002 C   0  0  0  0  0  0  0  0  0  0  0  0
   -6.0902    1.2318   -1.1566 C   0  0  0  0  0  0  0  0  0  0  0  0
   -6.9193    0.1428   -1.3419 C   0  0  0  0  0  0  0  0  0  0  0  0
   -6.4913   -1.1297   -1.2871 N   0  0  0  0  0  0  0  0  0  0  0  0
   -5.1757   -1.3112   -1.0356 C   0  0  0  0  0  0  0  0  0  0  0  0
   -4.2431   -0.2808   -0.8316 C   0  0  0  0  0  0  0  0  0  0  0  0
   -0.6599    0.5218   -0.1177 C   0  0  0  0  0  0  0  0  0  0  0  0
    0.5704    1.6932    0.1472 S   0  0  0  0  0  0  0  0  0  0  0  0
    3.9794   -1.9531    1.6396 H   0  0  0  0  0  0  0  0  0  0  0  0
    4.3213   -1.9107   -0.1267 H   0  0  0  0  0  0  0  0  0  0  0  0
    6.6111   -2.3761    1.2221 H   0  0  0  0  0  0  0  0  0  0  0  0
    7.5540    0.0445    1.4629 H   0  0  0  0  0  0  0  0  0  0  0  0
    6.1316    2.8186    1.2542 H   0  0  0  0  0  0  0  0  0  0  0  0
    1.8431   -1.6650    0.3199 H   0  0  0  0  0  0  0  0  0  0  0  0
   -2.7193   -2.6260   -0.5877 H   0  0  0  0  0  0  0  0  0  0  0  0
   -2.1023    2.8568   -0.3459 H   0  0  0  0  0  0  0  0  0  0  0  0
   -6.4894    2.2388   -1.2118 H   0  0  0  0  0  0  0  0  0  0  0  0
   -7.9785    0.2729   -1.5447 H   0  0  0  0  0  0  0  0  0  0  0  0
   -4.8894   -2.3584   -1.0033 H   0  0  0  0  0  0  0  0  0  0  0  0
  1  2  1  0
  2  3  2  0
  3  4  1  0
  4  5  2  0
  5  6  1  0
  6  7  1  0
  7  8  2  0
  7  9  1  0
  9 10  2  0
 10 11  1  0
 11 12  2  0
 12 13  1  0
 13 14  2  0
 14 15  1  0
 15 16  1  0
 16 17  2  0
 17 18  1  0
 18 19  2  0
 19 20  1  0
 20 21  2  0
 21 22  1  0
 22 23  2  0
 15 24  2  0
 24 25  1  0
  8  1  1  0
 25  9  1  0
  8  4  1  0
 24 11  1  0
 23 14  1  0
 23 18  1  0
  1 26  1  0
  1 27  1  0
  2 28  1  0
  3 29  1  0
  5 30  1  0
 10 31  1  0
 13 32  1  0
 16 33  1  0
 19 34  1  0
 20 35  1  0
 22 36  1  0
M  END
