
     RDKit          3D

 35 40  0  0  0  0  0  0  0  0999 V2000
    4.4384    1.2062   -0.4309 C   0  0  0  0  0  0  0  0  0  0  0  0
    5.9671    1.1405   -0.4843 C   0  0  0  0  0  0  0  0  0  0  0  0
    6.4151   -0.0973   -0.1786 C   0  0  0  0  0  0  0  0  0  0  0  0
    5.3079   -0.9368    0.0941 C   0  0  0  0  0  0  0  0  0  0  0  0
    5.1465   -2.2391    0.4451 C   0  0  0  0  0  0  0  0  0  0  0  0
    3.4668   -2.5752    0.6116 S   0  0  0  0  0  0  0  0  0  0  0  0
    2.9771   -0.9498    0.2056 C   0  0  0  0  0  0  0  0  0  0  0  0
    4.1058   -0.1998   -0.0446 C   0  0  0  0  0  0  0  0  0  0  0  0
    1.5866   -0.5356    0.1608 C   0  0  0  0  0  0  0  0  0  0  0  0
    1.1005    0.7198   -0.1496 C   0  0  0  0  0  0  0  0  0  0  0  0
   -0.3215    0.8126   -0.1075 C   0  0  0  0  0  0  0  0  0  0  0  0
   -1.0185    1.9511   -0.3769 N   0  0  0  0  0  0  0  0  0  0  0  0
   -2.3589    1.8543   -0.2884 C   0  0  0  0  0  0  0  0  0  0  0  0
   -3.0473    0.6943    0.0517 C   0  0  0  0  0  0  0  0  0  0  0  0
   -4.4508    0.6357    0.1331 C   0  0  0  0  0  0  0  0  0  0  0  0
   -5.3194    1.6632   -0.0988 O   0  0  0  0  0  0  0  0  0  0  0  0
   -6.5725    1.1748    0.0895 C   0  0  0  0  0  0  0  0  0  0  0  0
   -6.5274   -0.1546    0.4401 C   0  0  0  0  0  0  0  0  0  0  0  0
   -5.1545   -0.5165    0.4718 C   0  0  0  0  0  0  0  0  0  0  0  0
   -4.4345   -1.6931    0.7503 C   0  0  0  0  0  0  0  0  0  0  0  0
   -3.0319   -1.6712    0.6787 C   0  0  0  0  0  0  0  0  0  0  0  0
   -2.3386   -0.4898    0.3327 C   0  0  0  0  0  0  0  0  0  0  0  0
   -0.9209   -0.3984    0.2420 C   0  0  0  0  0  0  0  0  0  0  0  0
    0.2828   -1.5998    0.5044 S   0  0  0  0  0  0  0  0  0  0  0  0
    4.0317    1.4662   -1.4122 H   0  0  0  0  0  0  0  0  0  0  0  0
    4.1120    1.9247    0.3261 H   0  0  0  0  0  0  0  0  0  0  0  0
    6.5912    1.9851   -0.7360 H   0  0  0  0  0  0  0  0  0  0  0  0
    7.4502   -0.4067   -0.1449 H   0  0  0  0  0  0  0  0  0  0  0  0
    5.8894   -3.0057    0.6129 H   0  0  0  0  0  0  0  0  0  0  0  0
    1.7185    1.5683   -0.4038 H   0  0  0  0  0  0  0  0  0  0  0  0
   -2.8945    2.7754   -0.5077 H   0  0  0  0  0  0  0  0  0  0  0  0
   -7.3761    1.8826   -0.0606 H   0  0  0  0  0  0  0  0  0  0  0  0
   -7.3791   -0.7865    0.6477 H   0  0  0  0  0  0  0  0  0  0  0  0
   -4.9525   -2.6100    1.0179 H   0  0  0  0  0  0  0  0  0  0  0  0
   -2.4889   -2.5888    0.8968 H   0  0  0  0  0  0  0  0  0  0  0  0
  1  2  1  0
  2  3  2  0
  3  4  1  0
  4  5  2  0
  5  6  1  0
  6  7  1  0
  7  8  2  0
  7  9  1  0
  9 10  2  0
 10 11  1  0
 11 12  2  0
 12 13  1  0
 13 14  2  0
 14 15  1  0
 15 16  1  0
 16 17  1  0
 17 18  2  0
 18 19  1  0
 19 20  1  0
 20 21  2  0
 21 22  1  0
 22 23  2  0
 23 24  1  0
  8  1  1  0
 24  9  1  0
  8  4  1  0
 23 11  1  0
 22 14  1  0
 19 15  2  0
  1 25  1  0
  1 26  1  0
  2 27  1  0
  3 28  1  0
  5 29  1  0
 10 30  1  0
 13 31  1  0
 17 32  1  0
 18 33  1  0
 20 34  1  0
 21 35  1  0
M  END
