
     RDKit          3D

 44 51  0  0  0  0  0  0  0  0999 V2000
   -4.5275    1.1932    1.1754 C   0  0  0  0  0  0  0  0  0  0  0  0
   -6.0205    1.5284    1.0792 C   0  0  0  0  0  0  0  0  0  0  0  0
   -6.5326    1.1574   -0.1169 C   0  0  0  0  0  0  0  0  0  0  0  0
   -5.5074    0.5725   -0.8996 C   0  0  0  0  0  0  0  0  0  0  0  0
   -5.4156    0.0272   -2.1423 C   0  0  0  0  0  0  0  0  0  0  0  0
   -3.7934   -0.5012   -2.4173 S   0  0  0  0  0  0  0  0  0  0  0  0
   -3.2466    0.0265   -0.8507 C   0  0  0  0  0  0  0  0  0  0  0  0
   -4.3011    0.5775   -0.1642 C   0  0  0  0  0  0  0  0  0  0  0  0
   -1.8879   -0.1597   -0.4478 C   0  0  0  0  0  0  0  0  0  0  0  0
   -0.9921    0.7484   -0.8951 C   0  0  0  0  0  0  0  0  0  0  0  0
    0.3842    0.6134   -0.5287 C   0  0  0  0  0  0  0  0  0  0  0  0
    1.5255    1.7705   -1.0434 S   0  0  0  0  0  0  0  0  0  0  0  0
    2.8550    0.8842   -0.3987 C   0  0  0  0  0  0  0  0  0  0  0  0
    4.2231    1.2026   -0.4523 C   0  0  0  0  0  0  0  0  0  0  0  0
    5.0307    2.7155   -1.1736 Si  0  0  0  0  0  4  0  0  0  0  0  0
    6.7063    1.9856   -0.6852 C   0  0  0  0  0  0  0  0  0  0  0  0
    6.6044    0.7862   -0.0819 C   0  0  0  0  0  0  0  0  0  0  0  0
    5.2161    0.3404    0.0515 C   0  0  0  0  0  0  0  0  0  0  0  0
    4.7936   -0.8811    0.5895 C   0  0  0  0  0  0  0  0  0  0  0  0
    5.5788   -1.8662    1.0715 N   0  0  0  0  0  0  0  0  0  0  0  0
    4.5671   -3.1162    1.5107 S   0  0  0  0  0  0  0  0  0  0  0  0
    3.0853   -2.4526    1.1330 N   0  0  0  0  0  0  0  0  0  0  0  0
    3.3769   -1.2436    0.6810 C   0  0  0  0  0  0  0  0  0  0  0  0
    2.3794   -0.2835    0.2059 C   0  0  0  0  0  0  0  0  0  0  0  0
    0.9543   -0.3920    0.2531 C   0  0  0  0  0  0  0  0  0  0  0  0
    0.0238   -1.3082    0.8764 C   0  0  0  0  0  0  0  0  0  0  0  0
    0.2289   -2.1945    1.8695 C   0  0  0  0  0  0  0  0  0  0  0  0
   -1.3097   -3.1516    2.2987 Si  0  0  0  0  0  4  0  0  0  0  0  0
   -2.2319   -2.1008    1.0764 C   0  0  0  0  0  0  0  0  0  0  0  0
   -1.4183   -1.2070    0.4736 C   0  0  0  0  0  0  0  0  0  0  0  0
   -3.9333    2.1009    1.3123 H   0  0  0  0  0  0  0  0  0  0  0  0
   -4.3405    0.4849    1.9873 H   0  0  0  0  0  0  0  0  0  0  0  0
   -6.5760    2.0010    1.8754 H   0  0  0  0  0  0  0  0  0  0  0  0
   -7.5582    1.2828   -0.4341 H   0  0  0  0  0  0  0  0  0  0  0  0
   -6.1767   -0.0999   -2.8986 H   0  0  0  0  0  0  0  0  0  0  0  0
   -1.2938    1.5638   -1.5476 H   0  0  0  0  0  0  0  0  0  0  0  0
    4.7408    3.9558   -0.4127 H   0  0  0  0  0  0  0  0  0  0  0  0
    4.8936    2.8118   -2.6476 H   0  0  0  0  0  0  0  0  0  0  0  0
    7.6193    2.5206   -0.8979 H   0  0  0  0  0  0  0  0  0  0  0  0
    7.4352    0.1907    0.2735 H   0  0  0  0  0  0  0  0  0  0  0  0
    1.1330   -2.3967    2.4131 H   0  0  0  0  0  0  0  0  0  0  0  0
   -1.2387   -4.5749    1.8902 H   0  0  0  0  0  0  0  0  0  0  0  0
   -1.7548   -2.9100    3.6926 H   0  0  0  0  0  0  0  0  0  0  0  0
   -3.2988   -2.2020    0.9513 H   0  0  0  0  0  0  0  0  0  0  0  0
  1  2  1  0
  2  3  2  0
  3  4  1  0
  4  5  2  0
  5  6  1  0
  6  7  1  0
  7  8  2  0
  7  9  1  0
  9 10  2  0
 10 11  1  0
 11 12  1  0
 12 13  1  0
 13 14  1  0
 14 15  1  0
 15 16  1  0
 16 17  2  0
 17 18  1  0
 18 19  1  0
 19 20  2  0
 20 21  1  0
 21 22  1  0
 22 23  2  0
 23 24  1  0
 24 25  1  0
 25 26  1  0
 26 27  2  0
 27 28  1  0
 28 29  1  0
 29 30  2  0
  8  1  1  0
 30  9  1  0
  8  4  1  0
 25 11  2  0
 30 26  1  0
 24 13  2  0
 18 14  2  0
 23 19  1  0
  1 31  1  0
  1 32  1  0
  2 33  1  0
  3 34  1  0
  5 35  1  0
 10 36  1  0
 15 37  1  0
 15 38  1  0
 16 39  1  0
 17 40  1  0
 27 41  1  0
 28 42  1  0
 28 43  1  0
 29 44  1  0
M  END
