
     RDKit          3D

 42 48  0  0  0  0  0  0  0  0999 V2000
    4.6699   -0.6540    1.2146 C   0  0  0  0  0  0  0  0  0  0  0  0
    6.0983   -0.6022    1.7675 C   0  0  0  0  0  0  0  0  0  0  0  0
    6.8130    0.3918    1.1923 C   0  0  0  0  0  0  0  0  0  0  0  0
    5.9961    1.0676    0.2533 C   0  0  0  0  0  0  0  0  0  0  0  0
    6.1551    2.1085   -0.6078 C   0  0  0  0  0  0  0  0  0  0  0  0
    4.6788    2.3697   -1.4654 S   0  0  0  0  0  0  0  0  0  0  0  0
    3.8601    1.0686   -0.6589 C   0  0  0  0  0  0  0  0  0  0  0  0
    4.7119    0.4757    0.2401 C   0  0  0  0  0  0  0  0  0  0  0  0
    2.4625    0.7690   -0.9654 C   0  0  0  0  0  0  0  0  0  0  0  0
    2.0231    0.5721   -2.2762 C   0  0  0  0  0  0  0  0  0  0  0  0
    0.7586    0.2747   -2.6633 N   0  0  0  0  0  0  0  0  0  0  0  0
   -0.1339    0.1713   -1.6464 C   0  0  0  0  0  0  0  0  0  0  0  0
    0.2140    0.3499   -0.3162 C   0  0  0  0  0  0  0  0  0  0  0  0
    1.5237    0.6507    0.0652 C   0  0  0  0  0  0  0  0  0  0  0  0
   -0.9319    0.1773    0.4198 N   0  0  0  0  0  0  0  0  0  0  0  0
   -2.0157   -0.1164   -0.3819 C   0  0  0  0  0  0  0  0  0  0  0  0
   -1.5264   -0.1222   -1.6961 C   0  0  0  0  0  0  0  0  0  0  0  0
   -2.4082   -0.3920   -2.7591 C   0  0  0  0  0  0  0  0  0  0  0  0
   -3.7575   -0.6513   -2.5006 C   0  0  0  0  0  0  0  0  0  0  0  0
   -4.2672   -0.6517   -1.2018 C   0  0  0  0  0  0  0  0  0  0  0  0
   -5.6623   -0.9263   -1.0132 C   0  0  0  0  0  0  0  0  0  0  0  0
   -6.3179   -0.9613    0.2341 C   0  0  0  0  0  0  0  0  0  0  0  0
   -5.4476   -0.6953    1.2858 C   0  0  0  0  0  0  0  0  0  0  0  0
   -5.8888   -0.6819    2.5860 C   0  0  0  0  0  0  0  0  0  0  0  0
   -4.6105   -0.3294    3.6687 S   0  0  0  0  0  0  0  0  0  0  0  0
   -3.4693   -0.1957    2.3853 C   0  0  0  0  0  0  0  0  0  0  0  0
   -4.0321   -0.4121    1.1484 C   0  0  0  0  0  0  0  0  0  0  0  0
   -3.3741   -0.3765   -0.1034 C   0  0  0  0  0  0  0  0  0  0  0  0
    4.4785   -1.6107    0.7209 H   0  0  0  0  0  0  0  0  0  0  0  0
    3.9417   -0.4800    2.0116 H   0  0  0  0  0  0  0  0  0  0  0  0
    6.4706   -1.2823    2.5192 H   0  0  0  0  0  0  0  0  0  0  0  0
    7.8438    0.6372    1.4057 H   0  0  0  0  0  0  0  0  0  0  0  0
    7.0228    2.7255   -0.7927 H   0  0  0  0  0  0  0  0  0  0  0  0
    2.7230    0.6412   -3.1070 H   0  0  0  0  0  0  0  0  0  0  0  0
    1.7921    0.8010    1.1048 H   0  0  0  0  0  0  0  0  0  0  0  0
   -0.9568    0.2614    1.4213 H   0  0  0  0  0  0  0  0  0  0  0  0
   -2.0338   -0.3968   -3.7799 H   0  0  0  0  0  0  0  0  0  0  0  0
   -4.4075   -0.8551   -3.3498 H   0  0  0  0  0  0  0  0  0  0  0  0
   -6.2765   -1.1253   -1.8940 H   0  0  0  0  0  0  0  0  0  0  0  0
   -7.3746   -1.1730    0.3311 H   0  0  0  0  0  0  0  0  0  0  0  0
   -6.8860   -0.8583    2.9656 H   0  0  0  0  0  0  0  0  0  0  0  0
   -2.4589    0.0366    2.6674 H   0  0  0  0  0  0  0  0  0  0  0  0
  1  2  1  0
  2  3  2  0
  3  4  1  0
  4  5  2  0
  5  6  1  0
  6  7  1  0
  7  8  2  0
  7  9  1  0
  9 10  2  0
 10 11  1  0
 11 12  2  0
 12 13  1  0
 13 14  2  0
 13 15  1  0
 15 16  1  0
 16 17  2  0
 17 18  1  0
 18 19  2  0
 19 20  1  0
 20 21  1  0
 21 22  2  0
 22 23  1  0
 23 24  2  0
 24 25  1  0
 25 26  1  0
 26 27  2  0
 27 28  1  0
  8  1  1  0
 14  9  1  0
 28 16  1  0
  8  4  1  0
 17 12  1  0
 28 20  2  0
 27 23  1  0
  1 29  1  0
  1 30  1  0
  2 31  1  0
  3 32  1  0
  5 33  1  0
 10 34  1  0
 14 35  1  0
 15 36  1  0
 18 37  1  0
 19 38  1  0
 21 39  1  0
 22 40  1  0
 24 41  1  0
 26 42  1  0
M  END
