
     RDKit          3D

 44 51  0  0  0  0  0  0  0  0999 V2000
   -1.9704   -4.6438    0.2035 Si  0  0  0  0  0  4  0  0  0  0  0  0
   -0.6146   -3.3650    0.2205 C   0  0  0  0  0  0  0  0  0  0  0  0
   -1.0961   -2.1109    0.1231 C   0  0  0  0  0  0  0  0  0  0  0  0
   -0.3573   -0.8831    0.1329 C   0  0  0  0  0  0  0  0  0  0  0  0
   -1.0693    0.2870    0.3580 C   0  0  0  0  0  0  0  0  0  0  0  0
   -0.2577    1.3674    0.4835 O   0  0  0  0  0  0  0  0  0  0  0  0
    1.0148    0.9169    0.2612 C   0  0  0  0  0  0  0  0  0  0  0  0
    2.1675    1.7209    0.3029 C   0  0  0  0  0  0  0  0  0  0  0  0
    3.4194    1.1513   -0.0039 C   0  0  0  0  0  0  0  0  0  0  0  0
    4.6469    1.9257    0.0005 C   0  0  0  0  0  0  0  0  0  0  0  0
    5.4720    2.2970   -1.0447 C   0  0  0  0  0  0  0  0  0  0  0  0
    6.5874    3.0375   -0.7009 N   0  0  0  0  0  0  0  0  0  0  0  0
    6.5894    3.2311    0.5994 C   0  0  0  0  0  0  0  0  0  0  0  0
    5.2813    2.5458    1.4708 S   0  0  0  0  0  0  0  0  0  0  0  0
    3.3642   -0.2055   -0.3794 C   0  0  0  0  0  0  0  0  0  0  0  0
    4.4695   -0.9423   -0.7570 C   0  0  0  0  0  0  0  0  0  0  0  0
    4.0581   -2.5409   -1.2532 S   0  0  0  0  0  0  0  0  0  0  0  0
    2.3845   -2.2813   -0.9503 C   0  0  0  0  0  0  0  0  0  0  0  0
    2.1999   -1.0336   -0.4334 C   0  0  0  0  0  0  0  0  0  0  0  0
    0.9598   -0.4375   -0.0333 C   0  0  0  0  0  0  0  0  0  0  0  0
   -2.5010    0.4273    0.4400 C   0  0  0  0  0  0  0  0  0  0  0  0
   -3.2376    1.5991    0.5953 C   0  0  0  0  0  0  0  0  0  0  0  0
   -2.8112    2.8924    0.7512 C   0  0  0  0  0  0  0  0  0  0  0  0
   -3.8917    3.7268    0.8638 O   0  0  0  0  0  0  0  0  0  0  0  0
   -5.0196    2.9571    0.7746 C   0  0  0  0  0  0  0  0  0  0  0  0
   -4.6625    1.6465    0.6081 C   0  0  0  0  0  0  0  0  0  0  0  0
   -5.5154    0.5603    0.4679 C   0  0  0  0  0  0  0  0  0  0  0  0
   -4.7779   -0.6430    0.3100 C   0  0  0  0  0  0  0  0  0  0  0  0
   -3.3337   -0.7318    0.2974 C   0  0  0  0  0  0  0  0  0  0  0  0
   -2.6049   -2.0407    0.1645 C   0  0  0  0  0  0  0  0  0  0  0  0
   -3.2084   -3.2491    0.1825 C   0  0  0  0  0  0  0  0  0  0  0  0
   -1.9852   -5.4325   -1.0512 H   0  0  0  0  0  0  0  0  0  0  0  0
   -2.0250   -5.4290    1.4590 H   0  0  0  0  0  0  0  0  0  0  0  0
    0.4056   -3.6791    0.3441 H   0  0  0  0  0  0  0  0  0  0  0  0
    2.0777    2.7729    0.5575 H   0  0  0  0  0  0  0  0  0  0  0  0
    5.3063    2.0503   -2.0870 H   0  0  0  0  0  0  0  0  0  0  0  0
    7.3693    3.7911    1.0986 H   0  0  0  0  0  0  0  0  0  0  0  0
    5.5085   -0.6445   -0.7983 H   0  0  0  0  0  0  0  0  0  0  0  0
    1.6783   -3.0536   -1.2035 H   0  0  0  0  0  0  0  0  0  0  0  0
   -1.8469    3.3779    0.8037 H   0  0  0  0  0  0  0  0  0  0  0  0
   -5.9554    3.4930    0.8454 H   0  0  0  0  0  0  0  0  0  0  0  0
   -6.5956    0.5989    0.4737 H   0  0  0  0  0  0  0  0  0  0  0  0
   -5.3634   -1.5538    0.1904 H   0  0  0  0  0  0  0  0  0  0  0  0
   -4.2596   -3.4732    0.2508 H   0  0  0  0  0  0  0  0  0  0  0  0
  1  2  1  0
  2  3  2  0
  3  4  1  0
  4  5  2  0
  5  6  1  0
  6  7  1  0
  7  8  1  0
  8  9  2  0
  9 10  1  0
 10 11  2  0
 11 12  1  0
 12 13  2  0
 13 14  1  0
  9 15  1  0
 15 16  2  0
 16 17  1  0
 17 18  1  0
 18 19  2  0
 19 20  1  0
  5 21  1  0
 21 22  1  0
 22 23  2  0
 23 24  1  0
 24 25  1  0
 25 26  2  0
 26 27  1  0
 27 28  2  0
 28 29  1  0
 29 30  1  0
 30 31  2  0
 31  1  1  0
 30  3  1  0
 20  4  1  0
 29 21  2  0
 20  7  2  0
 26 22  1  0
 14 10  1  0
 19 15  1  0
  1 32  1  0
  1 33  1  0
  2 34  1  0
  8 35  1  0
 11 36  1  0
 13 37  1  0
 16 38  1  0
 18 39  1  0
 23 40  1  0
 25 41  1  0
 27 42  1  0
 28 43  1  0
 31 44  1  0
M  END
