
     RDKit          3D

 44 50  0  0  0  0  0  0  0  0999 V2000
   -5.3090   -0.8542    2.4678 C   0  0  0  0  0  0  0  0  0  0  0  0
   -6.7686   -0.7977    2.9306 C   0  0  0  0  0  0  0  0  0  0  0  0
   -7.4765    0.1079    2.2176 C   0  0  0  0  0  0  0  0  0  0  0  0
   -6.6246    0.7169    1.2643 C   0  0  0  0  0  0  0  0  0  0  0  0
   -6.7592    1.6724    0.3055 C   0  0  0  0  0  0  0  0  0  0  0  0
   -5.2400    1.9086   -0.4812 S   0  0  0  0  0  0  0  0  0  0  0  0
   -4.4344    0.7192    0.4928 C   0  0  0  0  0  0  0  0  0  0  0  0
   -5.3261    0.1683    1.3797 C   0  0  0  0  0  0  0  0  0  0  0  0
   -3.0192    0.4257    0.2802 C   0  0  0  0  0  0  0  0  0  0  0  0
   -2.5840   -0.8889    0.1046 C   0  0  0  0  0  0  0  0  0  0  0  0
   -1.2931   -1.2481   -0.0784 N   0  0  0  0  0  0  0  0  0  0  0  0
   -0.4128   -0.2153   -0.0857 C   0  0  0  0  0  0  0  0  0  0  0  0
    0.9296   -0.5344   -0.2731 C   0  0  0  0  0  0  0  0  0  0  0  0
    1.5212   -1.7540   -0.4604 N   0  0  0  0  0  0  0  0  0  0  0  0
    2.8794   -1.6241   -0.6055 C   0  0  0  0  0  0  0  0  0  0  0  0
    3.8346   -2.6217   -0.8130 C   0  0  0  0  0  0  0  0  0  0  0  0
    5.1680   -2.2333   -0.9305 C   0  0  0  0  0  0  0  0  0  0  0  0
    5.5488   -0.8918   -0.8452 C   0  0  0  0  0  0  0  0  0  0  0  0
    6.9013   -0.5352   -0.9680 C   0  0  0  0  0  0  0  0  0  0  0  0
    7.3027    0.7976   -0.8861 C   0  0  0  0  0  0  0  0  0  0  0  0
    6.3566    1.7942   -0.6801 C   0  0  0  0  0  0  0  0  0  0  0  0
    5.0054    1.4623   -0.5551 C   0  0  0  0  0  0  0  0  0  0  0  0
    4.5720    0.1197   -0.6341 C   0  0  0  0  0  0  0  0  0  0  0  0
    3.1904   -0.2620   -0.5103 C   0  0  0  0  0  0  0  0  0  0  0  0
    1.9358    0.4303   -0.2978 C   0  0  0  0  0  0  0  0  0  0  0  0
    1.5455    1.7676   -0.1237 C   0  0  0  0  0  0  0  0  0  0  0  0
    0.2400    2.1066    0.0614 N   0  0  0  0  0  0  0  0  0  0  0  0
   -0.7037    1.1457    0.0774 C   0  0  0  0  0  0  0  0  0  0  0  0
   -2.0468    1.4391    0.2636 C   0  0  0  0  0  0  0  0  0  0  0  0
   -5.0628   -1.8499    2.0891 H   0  0  0  0  0  0  0  0  0  0  0  0
   -4.6324   -0.5731    3.2795 H   0  0  0  0  0  0  0  0  0  0  0  0
   -7.1643   -1.4094    3.7278 H   0  0  0  0  0  0  0  0  0  0  0  0
   -8.5242    0.3393    2.3487 H   0  0  0  0  0  0  0  0  0  0  0  0
   -7.6304    2.2426    0.0163 H   0  0  0  0  0  0  0  0  0  0  0  0
   -3.2884   -1.7171    0.0968 H   0  0  0  0  0  0  0  0  0  0  0  0
    1.0050   -2.6228   -0.4858 H   0  0  0  0  0  0  0  0  0  0  0  0
    3.5561   -3.6689   -0.8821 H   0  0  0  0  0  0  0  0  0  0  0  0
    5.9176   -3.0060   -1.0924 H   0  0  0  0  0  0  0  0  0  0  0  0
    7.6594   -1.2987   -1.1299 H   0  0  0  0  0  0  0  0  0  0  0  0
    8.3539    1.0556   -0.9836 H   0  0  0  0  0  0  0  0  0  0  0  0
    6.6676    2.8339   -0.6162 H   0  0  0  0  0  0  0  0  0  0  0  0
    4.3058    2.2723   -0.3959 H   0  0  0  0  0  0  0  0  0  0  0  0
    2.2348    2.6019   -0.1240 H   0  0  0  0  0  0  0  0  0  0  0  0
   -2.3310    2.4787    0.4071 H   0  0  0  0  0  0  0  0  0  0  0  0
  1  2  1  0
  2  3  2  0
  3  4  1  0
  4  5  2  0
  5  6  1  0
  6  7  1  0
  7  8  2  0
  7  9  1  0
  9 10  2  0
 10 11  1  0
 11 12  2  0
 12 13  1  0
 13 14  1  0
 14 15  1  0
 15 16  2  0
 16 17  1  0
 17 18  2  0
 18 19  1  0
 19 20  2  0
 20 21  1  0
 21 22  2  0
 22 23  1  0
 23 24  2  0
 24 25  1  0
 25 26  1  0
 26 27  2  0
 27 28  1  0
 28 29  2  0
  8  1  1  0
 29  9  1  0
  8  4  1  0
 28 12  1  0
 25 13  2  0
 24 15  1  0
 23 18  1  0
  1 30  1  0
  1 31  1  0
  2 32  1  0
  3 33  1  0
  5 34  1  0
 10 35  1  0
 14 36  1  0
 16 37  1  0
 17 38  1  0
 19 39  1  0
 20 40  1  0
 21 41  1  0
 22 42  1  0
 26 43  1  0
 29 44  1  0
M  END
