
     RDKit          3D

 39 45  0  0  0  0  0  0  0  0999 V2000
   -4.5212    1.1453    0.7360 C   0  0  0  0  0  0  0  0  0  0  0  0
   -6.0509    1.1526    0.7951 C   0  0  0  0  0  0  0  0  0  0  0  0
   -6.5691    0.0719    0.1716 C   0  0  0  0  0  0  0  0  0  0  0  0
   -5.5122   -0.7211   -0.3373 C   0  0  0  0  0  0  0  0  0  0  0  0
   -5.4281   -1.8839   -1.0311 C   0  0  0  0  0  0  0  0  0  0  0  0
   -3.7747   -2.2551   -1.3106 S   0  0  0  0  0  0  0  0  0  0  0  0
   -3.1717   -0.8265   -0.4834 C   0  0  0  0  0  0  0  0  0  0  0  0
   -1.7745   -0.5508   -0.3693 C   0  0  0  0  0  0  0  0  0  0  0  0
   -1.2608    0.5341    0.2558 C   0  0  0  0  0  0  0  0  0  0  0  0
    0.2060    0.5938    0.2398 C   0  0  0  0  0  0  0  0  0  0  0  0
    0.8678   -0.4738   -0.4163 C   0  0  0  0  0  0  0  0  0  0  0  0
   -0.3830   -1.6619   -1.0770 Si  0  0  0  0  0  4  0  0  0  0  0  0
    2.2629   -0.5135   -0.4885 C   0  0  0  0  0  0  0  0  0  0  0  0
    3.1630   -1.4178   -1.0560 N   0  0  0  0  0  0  0  0  0  0  0  0
    4.4126   -0.9496   -0.8219 C   0  0  0  0  0  0  0  0  0  0  0  0
    5.6960   -1.4058   -1.1370 C   0  0  0  0  0  0  0  0  0  0  0  0
    6.5305   -0.4727   -0.6126 C   0  0  0  0  0  0  0  0  0  0  0  0
    5.7709    0.6811    0.0978 C   0  0  0  0  0  0  0  0  0  0  0  0
    4.3862    0.2252   -0.1244 C   0  0  0  0  0  0  0  0  0  0  0  0
    3.0509    0.4953    0.0822 C   0  0  0  0  0  0  0  0  0  0  0  0
    2.4423    1.6019    0.7596 C   0  0  0  0  0  0  0  0  0  0  0  0
    3.1376    2.5818    1.3164 N   0  0  0  0  0  0  0  0  0  0  0  0
    1.9286    3.5637    1.9408 S   0  0  0  0  0  0  0  0  0  0  0  0
    0.5564    2.7129    1.4841 N   0  0  0  0  0  0  0  0  0  0  0  0
    0.9847    1.6184    0.8202 C   0  0  0  0  0  0  0  0  0  0  0  0
   -4.2686   -0.1199   -0.0246 C   0  0  0  0  0  0  0  0  0  0  0  0
   -4.1549    2.0239    0.1975 H   0  0  0  0  0  0  0  0  0  0  0  0
   -4.0995    1.1051    1.7443 H   0  0  0  0  0  0  0  0  0  0  0  0
   -6.6244    1.9300    1.2774 H   0  0  0  0  0  0  0  0  0  0  0  0
   -7.6201   -0.1592    0.0719 H   0  0  0  0  0  0  0  0  0  0  0  0
   -6.2162   -2.5315   -1.3876 H   0  0  0  0  0  0  0  0  0  0  0  0
   -1.8181    1.3214    0.7422 H   0  0  0  0  0  0  0  0  0  0  0  0
   -0.2903   -2.9871   -0.4112 H   0  0  0  0  0  0  0  0  0  0  0  0
   -0.3657   -1.7117   -2.5620 H   0  0  0  0  0  0  0  0  0  0  0  0
    2.9207   -2.2657   -1.5504 H   0  0  0  0  0  0  0  0  0  0  0  0
    5.9647   -2.3007   -1.6769 H   0  0  0  0  0  0  0  0  0  0  0  0
    7.6088   -0.5057   -0.6697 H   0  0  0  0  0  0  0  0  0  0  0  0
    5.9797    1.6368   -0.3898 H   0  0  0  0  0  0  0  0  0  0  0  0
    6.0335    0.7189    1.1583 H   0  0  0  0  0  0  0  0  0  0  0  0
  1  2  1  0
  2  3  2  0
  3  4  1  0
  4  5  2  0
  5  6  1  0
  6  7  1  0
  7  8  1  0
  8  9  2  0
  9 10  1  0
 10 11  2  0
 11 12  1  0
 11 13  1  0
 13 14  1  0
 14 15  1  0
 15 16  1  0
 16 17  2  0
 17 18  1  0
 18 19  1  0
 19 20  1  0
 20 21  1  0
 21 22  2  0
 22 23  1  0
 23 24  1  0
 24 25  2  0
  7 26  2  0
 26  1  1  0
 26  4  1  0
 12  8  1  0
 20 13  2  0
 25 21  1  0
 25 10  1  0
 19 15  2  0
  1 27  1  0
  1 28  1  0
  2 29  1  0
  3 30  1  0
  5 31  1  0
  9 32  1  0
 12 33  1  0
 12 34  1  0
 14 35  1  0
 16 36  1  0
 17 37  1  0
 18 38  1  0
 18 39  1  0
M  END
