
     RDKit          3D

 43 49  0  0  0  0  0  0  0  0999 V2000
    4.6613   -1.4814    1.0304 C   0  0  0  0  0  0  0  0  0  0  0  0
    6.1135   -1.8702    1.3227 C   0  0  0  0  0  0  0  0  0  0  0  0
    6.9717   -1.1941    0.5264 C   0  0  0  0  0  0  0  0  0  0  0  0
    6.2355   -0.3372   -0.3274 C   0  0  0  0  0  0  0  0  0  0  0  0
    6.5407    0.5534   -1.3060 C   0  0  0  0  0  0  0  0  0  0  0  0
    5.0865    1.2420   -1.9187 S   0  0  0  0  0  0  0  0  0  0  0  0
    4.0521    0.3232   -0.8481 C   0  0  0  0  0  0  0  0  0  0  0  0
    2.6243    0.4357   -0.8468 C   0  0  0  0  0  0  0  0  0  0  0  0
    1.9470    1.2592   -1.6757 C   0  0  0  0  0  0  0  0  0  0  0  0
    0.5280    1.1234   -1.4079 C   0  0  0  0  0  0  0  0  0  0  0  0
   -0.5639    1.7286   -1.9663 C   0  0  0  0  0  0  0  0  0  0  0  0
   -1.8198    1.4458   -1.5543 N   0  0  0  0  0  0  0  0  0  0  0  0
   -2.0068    0.5293   -0.5512 C   0  0  0  0  0  0  0  0  0  0  0  0
   -0.9249   -0.1344    0.0709 C   0  0  0  0  0  0  0  0  0  0  0  0
   -1.0416   -1.0438    1.0602 N   0  0  0  0  0  0  0  0  0  0  0  0
   -2.2862   -1.3463    1.4924 C   0  0  0  0  0  0  0  0  0  0  0  0
   -3.4579   -0.7939    0.9977 C   0  0  0  0  0  0  0  0  0  0  0  0
   -4.7422   -1.1936    1.5379 C   0  0  0  0  0  0  0  0  0  0  0  0
   -5.9919   -0.6961    1.1090 C   0  0  0  0  0  0  0  0  0  0  0  0
   -5.8144    0.2303    0.0964 C   0  0  0  0  0  0  0  0  0  0  0  0
   -6.8234    0.9037   -0.5424 C   0  0  0  0  0  0  0  0  0  0  0  0
   -6.2262    1.7226   -1.4751 N   0  0  0  0  0  0  0  0  0  0  0  0
   -4.8569    1.5731   -1.4313 C   0  0  0  0  0  0  0  0  0  0  0  0
   -4.5659    0.6465   -0.4585 C   0  0  0  0  0  0  0  0  0  0  0  0
   -3.2875    0.1686   -0.0533 C   0  0  0  0  0  0  0  0  0  0  0  0
    0.3291    0.1959   -0.3920 C   0  0  0  0  0  0  0  0  0  0  0  0
    1.6554   -0.3281    0.0587 C   0  0  0  0  0  0  0  0  0  0  0  0
    4.8533   -0.4766   -0.0606 C   0  0  0  0  0  0  0  0  0  0  0  0
    4.1950   -1.0378    1.9145 H   0  0  0  0  0  0  0  0  0  0  0  0
    4.0907   -2.3493    0.6884 H   0  0  0  0  0  0  0  0  0  0  0  0
    6.3968   -2.5937    2.0724 H   0  0  0  0  0  0  0  0  0  0  0  0
    8.0485   -1.2855    0.5326 H   0  0  0  0  0  0  0  0  0  0  0  0
    7.5047    0.8435   -1.6984 H   0  0  0  0  0  0  0  0  0  0  0  0
    2.3376    1.9264   -2.4280 H   0  0  0  0  0  0  0  0  0  0  0  0
   -0.4796    2.4604   -2.7617 H   0  0  0  0  0  0  0  0  0  0  0  0
   -2.3075   -2.0856    2.2903 H   0  0  0  0  0  0  0  0  0  0  0  0
   -4.7577   -1.9360    2.3386 H   0  0  0  0  0  0  0  0  0  0  0  0
   -6.9381   -1.0082    1.5260 H   0  0  0  0  0  0  0  0  0  0  0  0
   -7.8988    0.8854   -0.4307 H   0  0  0  0  0  0  0  0  0  0  0  0
   -6.7180    2.3449   -2.1031 H   0  0  0  0  0  0  0  0  0  0  0  0
   -4.2262    2.1438   -2.0997 H   0  0  0  0  0  0  0  0  0  0  0  0
    1.8344   -0.0875    1.1114 H   0  0  0  0  0  0  0  0  0  0  0  0
    1.7295   -1.4065   -0.1134 H   0  0  0  0  0  0  0  0  0  0  0  0
  1  2  1  0
  2  3  2  0
  3  4  1  0
  4  5  2  0
  5  6  1  0
  6  7  1  0
  7  8  1  0
  8  9  2  0
  9 10  1  0
 10 11  2  0
 11 12  1  0
 12 13  2  0
 13 14  1  0
 14 15  1  0
 15 16  2  0
 16 17  1  0
 17 18  1  0
 18 19  2  0
 19 20  1  0
 20 21  2  0
 21 22  1  0
 22 23  1  0
 23 24  2  0
 24 25  1  0
 14 26  2  0
 26 27  1  0
  7 28  2  0
 28  1  1  0
 28  4  1  0
 27  8  1  0
 26 10  1  0
 25 13  1  0
 25 17  2  0
 24 20  1  0
  1 29  1  0
  1 30  1  0
  2 31  1  0
  3 32  1  0
  5 33  1  0
  9 34  1  0
 11 35  1  0
 16 36  1  0
 18 37  1  0
 19 38  1  0
 21 39  1  0
 22 40  1  0
 23 41  1  0
 27 42  1  0
 27 43  1  0
M  END
