
     RDKit          3D

 44 51  0  0  0  0  0  0  0  0999 V2000
    5.3017   -0.1949    1.7455 C   0  0  0  0  0  0  0  0  0  0  0  0
    6.8282   -0.2794    1.6527 C   0  0  0  0  0  0  0  0  0  0  0  0
    7.2436   -0.2544    0.3664 C   0  0  0  0  0  0  0  0  0  0  0  0
    6.1151   -0.1570   -0.4836 C   0  0  0  0  0  0  0  0  0  0  0  0
    5.9143   -0.0944   -1.8270 C   0  0  0  0  0  0  0  0  0  0  0  0
    4.2219    0.0150   -2.1435 S   0  0  0  0  0  0  0  0  0  0  0  0
    3.7949   -0.0242   -0.4592 C   0  0  0  0  0  0  0  0  0  0  0  0
    2.4153    0.0396   -0.0429 C   0  0  0  0  0  0  0  0  0  0  0  0
    1.9122    0.0226    1.2517 C   0  0  0  0  0  0  0  0  0  0  0  0
    0.5183    0.1085    1.0786 C   0  0  0  0  0  0  0  0  0  0  0  0
   -0.6711    0.1531    1.7451 N   0  0  0  0  0  0  0  0  0  0  0  0
   -1.6982    0.2449    0.8130 C   0  0  0  0  0  0  0  0  0  0  0  0
   -1.1469    0.2585   -0.4733 C   0  0  0  0  0  0  0  0  0  0  0  0
    0.2420    0.1705   -0.2333 C   0  0  0  0  0  0  0  0  0  0  0  0
    1.3857    0.1308   -0.9613 O   0  0  0  0  0  0  0  0  0  0  0  0
   -1.9960    0.3468   -1.6007 C   0  0  0  0  0  0  0  0  0  0  0  0
   -1.4052    0.3578   -2.8829 C   0  0  0  0  0  0  0  0  0  0  0  0
   -2.1950    0.4431   -4.0237 C   0  0  0  0  0  0  0  0  0  0  0  0
   -3.5741    0.5179   -3.8959 C   0  0  0  0  0  0  0  0  0  0  0  0
   -4.1664    0.5074   -2.6264 C   0  0  0  0  0  0  0  0  0  0  0  0
   -3.4078    0.4219   -1.4303 C   0  0  0  0  0  0  0  0  0  0  0  0
   -3.9732    0.4081   -0.1083 C   0  0  0  0  0  0  0  0  0  0  0  0
   -5.3867    0.4807    0.1437 C   0  0  0  0  0  0  0  0  0  0  0  0
   -6.0021    0.4716    1.4145 C   0  0  0  0  0  0  0  0  0  0  0  0
   -5.1367    0.3829    2.5215 C   0  0  0  0  0  0  0  0  0  0  0  0
   -5.5171    0.3596    3.8077 N   0  0  0  0  0  0  0  0  0  0  0  0
   -4.1284    0.2482    4.7056 S   0  0  0  0  0  0  0  0  0  0  0  0
   -2.9840    0.2245    3.5037 N   0  0  0  0  0  0  0  0  0  0  0  0
   -3.6489    0.3038    2.3322 C   0  0  0  0  0  0  0  0  0  0  0  0
   -3.0878    0.3178    1.0149 C   0  0  0  0  0  0  0  0  0  0  0  0
    4.9361   -0.1188    0.3002 C   0  0  0  0  0  0  0  0  0  0  0  0
    4.9984    0.7033    2.2907 H   0  0  0  0  0  0  0  0  0  0  0  0
    4.8949   -1.0910    2.2224 H   0  0  0  0  0  0  0  0  0  0  0  0
    7.4749   -0.3495    2.5147 H   0  0  0  0  0  0  0  0  0  0  0  0
    8.2697   -0.3007    0.0297 H   0  0  0  0  0  0  0  0  0  0  0  0
    6.6322   -0.1051   -2.6345 H   0  0  0  0  0  0  0  0  0  0  0  0
    2.4665   -0.0417    2.1747 H   0  0  0  0  0  0  0  0  0  0  0  0
   -0.7814    0.1240    2.7522 H   0  0  0  0  0  0  0  0  0  0  0  0
   -0.3246    0.2998   -3.0005 H   0  0  0  0  0  0  0  0  0  0  0  0
   -1.7325    0.4510   -5.0069 H   0  0  0  0  0  0  0  0  0  0  0  0
   -4.1981    0.5848   -4.7837 H   0  0  0  0  0  0  0  0  0  0  0  0
   -5.2503    0.5687   -2.6006 H   0  0  0  0  0  0  0  0  0  0  0  0
   -6.0764    0.5500   -0.6971 H   0  0  0  0  0  0  0  0  0  0  0  0
   -7.0773    0.5293    1.5342 H   0  0  0  0  0  0  0  0  0  0  0  0
  1  2  1  0
  2  3  2  0
  3  4  1  0
  4  5  2  0
  5  6  1  0
  6  7  1  0
  7  8  1  0
  8  9  2  0
  9 10  1  0
 10 11  1  0
 11 12  1  0
 12 13  2  0
 13 14  1  0
 14 15  1  0
 13 16  1  0
 16 17  2  0
 17 18  1  0
 18 19  2  0
 19 20  1  0
 20 21  2  0
 21 22  1  0
 22 23  1  0
 23 24  2  0
 24 25  1  0
 25 26  2  0
 26 27  1  0
 27 28  1  0
 28 29  2  0
 29 30  1  0
  7 31  2  0
 31  1  1  0
 31  4  1  0
 15  8  1  0
 21 16  1  0
 30 22  2  0
 14 10  2  0
 29 25  1  0
 30 12  1  0
  1 32  1  0
  1 33  1  0
  2 34  1  0
  3 35  1  0
  5 36  1  0
  9 37  1  0
 11 38  1  0
 17 39  1  0
 18 40  1  0
 19 41  1  0
 20 42  1  0
 23 43  1  0
 24 44  1  0
M  END
