
     RDKit          3D

 37 42  0  0  0  0  0  0  0  0999 V2000
    4.6219    1.4475    1.2596 C   0  0  0  0  0  0  0  0  0  0  0  0
    5.9927    0.8040    1.2451 C   0  0  0  0  0  0  0  0  0  0  0  0
    5.9676   -0.4524    0.7658 C   0  0  0  0  0  0  0  0  0  0  0  0
    4.5906   -0.7632    0.4185 C   0  0  0  0  0  0  0  0  0  0  0  0
    4.1899   -1.9371   -0.0926 N   0  0  0  0  0  0  0  0  0  0  0  0
    2.8642   -2.0775   -0.3673 C   0  0  0  0  0  0  0  0  0  0  0  0
    1.9665   -1.0284   -0.1197 C   0  0  0  0  0  0  0  0  0  0  0  0
    2.4631    0.1680    0.4157 C   0  0  0  0  0  0  0  0  0  0  0  0
    1.4708    1.0927    0.5990 O   0  0  0  0  0  0  0  0  0  0  0  0
    0.3035    0.5095    0.1835 C   0  0  0  0  0  0  0  0  0  0  0  0
   -0.9790    1.1009    0.1910 C   0  0  0  0  0  0  0  0  0  0  0  0
   -2.0953    0.3572   -0.2649 C   0  0  0  0  0  0  0  0  0  0  0  0
   -3.4431    0.8839   -0.2954 C   0  0  0  0  0  0  0  0  0  0  0  0
   -3.9145    1.8262   -1.1372 C   0  0  0  0  0  0  0  0  0  0  0  0
   -5.3001    2.2124   -0.9188 C   0  0  0  0  0  0  0  0  0  0  0  0
   -5.9144    1.5924    0.1054 C   0  0  0  0  0  0  0  0  0  0  0  0
   -4.7613    0.3755    0.9622 Si  0  0  0  0  0  4  0  0  0  0  0  0
   -1.7604   -0.9306   -0.7081 C   0  0  0  0  0  0  0  0  0  0  0  0
   -2.5883   -1.8897   -1.2476 C   0  0  0  0  0  0  0  0  0  0  0  0
   -1.8738   -3.0216   -1.5607 O   0  0  0  0  0  0  0  0  0  0  0  0
   -0.5607   -2.7906   -1.2326 C   0  0  0  0  0  0  0  0  0  0  0  0
   -0.4874   -1.5330   -0.7264 C   0  0  0  0  0  0  0  0  0  0  0  0
    0.6032   -0.7678   -0.2482 C   0  0  0  0  0  0  0  0  0  0  0  0
    3.7967    0.3361    0.7018 C   0  0  0  0  0  0  0  0  0  0  0  0
    4.3164    1.7009    2.2785 H   0  0  0  0  0  0  0  0  0  0  0  0
    4.5940    2.3299    0.6145 H   0  0  0  0  0  0  0  0  0  0  0  0
    6.8848    1.3110    1.5855 H   0  0  0  0  0  0  0  0  0  0  0  0
    6.7869   -1.1400    0.6424 H   0  0  0  0  0  0  0  0  0  0  0  0
    2.5640   -3.0338   -0.7795 H   0  0  0  0  0  0  0  0  0  0  0  0
   -1.0985    2.1186    0.5516 H   0  0  0  0  0  0  0  0  0  0  0  0
   -3.3318    2.2865   -1.9265 H   0  0  0  0  0  0  0  0  0  0  0  0
   -5.7773    2.9525   -1.5497 H   0  0  0  0  0  0  0  0  0  0  0  0
   -6.9316    1.7339    0.4351 H   0  0  0  0  0  0  0  0  0  0  0  0
   -5.2071   -1.0287    0.7818 H   0  0  0  0  0  0  0  0  0  0  0  0
   -4.4320    0.7980    2.3461 H   0  0  0  0  0  0  0  0  0  0  0  0
   -3.6443   -1.9422   -1.4743 H   0  0  0  0  0  0  0  0  0  0  0  0
    0.1240   -3.6011   -1.4336 H   0  0  0  0  0  0  0  0  0  0  0  0
  1  2  1  0
  2  3  2  0
  3  4  1  0
  4  5  2  0
  5  6  1  0
  6  7  2  0
  7  8  1  0
  8  9  1  0
  9 10  1  0
 10 11  1  0
 11 12  2  0
 12 13  1  0
 13 14  2  0
 14 15  1  0
 15 16  2  0
 16 17  1  0
 12 18  1  0
 18 19  2  0
 19 20  1  0
 20 21  1  0
 21 22  2  0
 22 23  1  0
  8 24  2  0
 24  1  1  0
 24  4  1  0
 23  7  1  0
 23 10  2  0
 17 13  1  0
 22 18  1  0
  1 25  1  0
  1 26  1  0
  2 27  1  0
  3 28  1  0
  6 29  1  0
 11 30  1  0
 14 31  1  0
 15 32  1  0
 16 33  1  0
 17 34  1  0
 17 35  1  0
 19 36  1  0
 21 37  1  0
M  END
