
     RDKit          3D

 32 36  0  0  0  0  0  0  0  0999 V2000
   -4.4953   -0.6703   -0.3382 C   0  0  0  0  0  0  0  0  0  0  0  0
   -5.4163    0.5062   -0.5707 C   0  0  0  0  0  0  0  0  0  0  0  0
   -4.7517    1.6714   -0.6351 C   0  0  0  0  0  0  0  0  0  0  0  0
   -3.3418    1.3778   -0.4530 C   0  0  0  0  0  0  0  0  0  0  0  0
   -2.3790    2.3074   -0.4590 N   0  0  0  0  0  0  0  0  0  0  0  0
   -1.1319    1.8131   -0.2709 C   0  0  0  0  0  0  0  0  0  0  0  0
   -0.8285    0.4464   -0.0814 C   0  0  0  0  0  0  0  0  0  0  0  0
    0.4927   -0.0348    0.1130 C   0  0  0  0  0  0  0  0  0  0  0  0
    1.7035    0.6237    0.1644 N   0  0  0  0  0  0  0  0  0  0  0  0
    2.7357   -0.2583    0.3746 C   0  0  0  0  0  0  0  0  0  0  0  0
    2.1751   -1.5168    0.4608 C   0  0  0  0  0  0  0  0  0  0  0  0
    0.7687   -1.3907    0.2984 C   0  0  0  0  0  0  0  0  0  0  0  0
   -0.2946   -2.3133    0.2930 C   0  0  0  0  0  0  0  0  0  0  0  0
   -1.6069   -1.8618    0.1030 C   0  0  0  0  0  0  0  0  0  0  0  0
   -1.8821   -0.4983   -0.0832 C   0  0  0  0  0  0  0  0  0  0  0  0
   -3.1632    0.0074   -0.2762 C   0  0  0  0  0  0  0  0  0  0  0  0
    4.1133    0.1264    0.4751 C   0  0  0  0  0  0  0  0  0  0  0  0
    5.0664   -0.7585    0.6773 N   0  0  0  0  0  0  0  0  0  0  0  0
    6.2915   -0.1240    0.7329 C   0  0  0  0  0  0  0  0  0  0  0  0
    6.2605    1.2436    0.5721 C   0  0  0  0  0  0  0  0  0  0  0  0
    4.6425    1.7588    0.3426 S   0  0  0  0  0  0  0  0  0  0  0  0
   -4.5483   -1.3739   -1.1739 H   0  0  0  0  0  0  0  0  0  0  0  0
   -4.7354   -1.1688    0.6054 H   0  0  0  0  0  0  0  0  0  0  0  0
   -6.4879    0.4066   -0.6719 H   0  0  0  0  0  0  0  0  0  0  0  0
   -5.1437    2.6618   -0.7906 H   0  0  0  0  0  0  0  0  0  0  0  0
   -0.3541    2.5704   -0.2764 H   0  0  0  0  0  0  0  0  0  0  0  0
    1.8231    1.6212    0.0620 H   0  0  0  0  0  0  0  0  0  0  0  0
    2.7281   -2.4337    0.6247 H   0  0  0  0  0  0  0  0  0  0  0  0
   -0.0996   -3.3729    0.4357 H   0  0  0  0  0  0  0  0  0  0  0  0
   -2.4112   -2.5938    0.1028 H   0  0  0  0  0  0  0  0  0  0  0  0
    7.1854   -0.7140    0.8949 H   0  0  0  0  0  0  0  0  0  0  0  0
    7.0851    1.9415    0.5784 H   0  0  0  0  0  0  0  0  0  0  0  0
  1  2  1  0
  2  3  2  0
  3  4  1  0
  4  5  2  0
  5  6  1  0
  6  7  2  0
  7  8  1  0
  8  9  1  0
  9 10  1  0
 10 11  2  0
 11 12  1  0
 12 13  1  0
 13 14  2  0
 14 15  1  0
 15 16  2  0
 10 17  1  0
 17 18  2  0
 18 19  1  0
 19 20  2  0
 20 21  1  0
 16  1  1  0
 21 17  1  0
 16  4  1  0
 15  7  1  0
 12  8  2  0
  1 22  1  0
  1 23  1  0
  2 24  1  0
  3 25  1  0
  6 26  1  0
  9 27  1  0
 11 28  1  0
 13 29  1  0
 14 30  1  0
 19 31  1  0
 20 32  1  0
M  END
