
     RDKit          3D

 42 47  0  0  0  0  0  0  0  0999 V2000
   -4.8299   -0.3974   -0.0009 C   0  0  0  0  0  0  0  0  0  0  0  0
   -5.9399    0.6218    0.0495 C   0  0  0  0  0  0  0  0  0  0  0  0
   -5.4684    1.8742    0.0359 C   0  0  0  0  0  0  0  0  0  0  0  0
   -4.0238    1.7827   -0.0240 C   0  0  0  0  0  0  0  0  0  0  0  0
   -3.2455    2.8521   -0.0511 N   0  0  0  0  0  0  0  0  0  0  0  0
   -1.9288    2.5551   -0.1065 C   0  0  0  0  0  0  0  0  0  0  0  0
   -1.3280    1.2652   -0.1376 C   0  0  0  0  0  0  0  0  0  0  0  0
    0.0952    1.0962   -0.1983 C   0  0  0  0  0  0  0  0  0  0  0  0
    0.9996    2.1967   -0.2240 C   0  0  0  0  0  0  0  0  0  0  0  0
    2.3862    2.0520   -0.2886 C   0  0  0  0  0  0  0  0  0  0  0  0
    2.9429    0.7894   -0.3373 C   0  0  0  0  0  0  0  0  0  0  0  0
    2.0767   -0.3102   -0.3020 C   0  0  0  0  0  0  0  0  0  0  0  0
    0.6524   -0.2058   -0.2329 C   0  0  0  0  0  0  0  0  0  0  0  0
   -0.2093   -1.3530   -0.1973 C   0  0  0  0  0  0  0  0  0  0  0  0
    0.3087   -2.6815   -0.2205 C   0  0  0  0  0  0  0  0  0  0  0  0
   -0.4908   -3.8202   -0.1904 C   0  0  0  0  0  0  0  0  0  0  0  0
   -1.8545   -3.6711   -0.1351 C   0  0  0  0  0  0  0  0  0  0  0  0
   -2.3981   -2.3863   -0.1091 C   0  0  0  0  0  0  0  0  0  0  0  0
   -1.6246   -1.1909   -0.1370 C   0  0  0  0  0  0  0  0  0  0  0  0
   -2.2030    0.1388   -0.1072 C   0  0  0  0  0  0  0  0  0  0  0  0
   -3.5904    0.4559   -0.0483 C   0  0  0  0  0  0  0  0  0  0  0  0
    4.3926    0.6177   -0.4167 C   0  0  0  0  0  0  0  0  0  0  0  0
    5.4173    1.3093    0.2090 C   0  0  0  0  0  0  0  0  0  0  0  0
    6.6496    0.7592   -0.2186 C   0  0  0  0  0  0  0  0  0  0  0  0
    6.3575   -0.2481   -1.1073 C   0  0  0  0  0  0  0  0  0  0  0  0
    4.9947   -0.3228   -1.2259 N   0  0  0  0  0  0  0  0  0  0  0  0
   -4.9365   -1.0020   -0.9063 H   0  0  0  0  0  0  0  0  0  0  0  0
   -4.8618   -1.0099    0.9050 H   0  0  0  0  0  0  0  0  0  0  0  0
   -6.9876    0.3600    0.0916 H   0  0  0  0  0  0  0  0  0  0  0  0
   -6.0144    2.8014    0.0629 H   0  0  0  0  0  0  0  0  0  0  0  0
   -1.3327    3.4619   -0.1275 H   0  0  0  0  0  0  0  0  0  0  0  0
    0.6481    3.2241   -0.1953 H   0  0  0  0  0  0  0  0  0  0  0  0
    3.0141    2.9393   -0.3137 H   0  0  0  0  0  0  0  0  0  0  0  0
    2.5498   -1.2866   -0.3066 H   0  0  0  0  0  0  0  0  0  0  0  0
    1.3763   -2.8731   -0.2598 H   0  0  0  0  0  0  0  0  0  0  0  0
   -0.0416   -4.8090   -0.2087 H   0  0  0  0  0  0  0  0  0  0  0  0
   -2.5043   -4.5415   -0.1100 H   0  0  0  0  0  0  0  0  0  0  0  0
   -3.4766   -2.3636   -0.0638 H   0  0  0  0  0  0  0  0  0  0  0  0
    5.2892    2.1219    0.9130 H   0  0  0  0  0  0  0  0  0  0  0  0
    7.6406    1.0687    0.0869 H   0  0  0  0  0  0  0  0  0  0  0  0
    6.9995   -0.9130   -1.6692 H   0  0  0  0  0  0  0  0  0  0  0  0
    4.4994   -0.9580   -1.8369 H   0  0  0  0  0  0  0  0  0  0  0  0
  1  2  1  0
  2  3  2  0
  3  4  1  0
  4  5  2  0
  5  6  1  0
  6  7  2  0
  7  8  1  0
  8  9  2  0
  9 10  1  0
 10 11  2  0
 11 12  1  0
 12 13  2  0
 13 14  1  0
 14 15  2  0
 15 16  1  0
 16 17  2  0
 17 18  1  0
 18 19  2  0
 19 20  1  0
 20 21  2  0
 11 22  1  0
 22 23  2  0
 23 24  1  0
 24 25  2  0
 25 26  1  0
 21  1  1  0
 26 22  1  0
 21  4  1  0
 20  7  1  0
 13  8  1  0
 19 14  1  0
  1 27  1  0
  1 28  1  0
  2 29  1  0
  3 30  1  0
  6 31  1  0
  9 32  1  0
 10 33  1  0
 12 34  1  0
 15 35  1  0
 16 36  1  0
 17 37  1  0
 18 38  1  0
 23 39  1  0
 24 40  1  0
 25 41  1  0
 26 42  1  0
M  END
