
     RDKit          3D

 39 45  0  0  0  0  0  0  0  0999 V2000
   -5.0607   -0.8420    0.7692 C   0  0  0  0  0  0  0  0  0  0  0  0
   -6.4167   -0.3659    0.2984 C   0  0  0  0  0  0  0  0  0  0  0  0
   -6.3258    0.6094   -0.6205 C   0  0  0  0  0  0  0  0  0  0  0  0
   -4.9147    0.8663   -0.8405 C   0  0  0  0  0  0  0  0  0  0  0  0
   -4.4427    1.7789   -1.6945 N   0  0  0  0  0  0  0  0  0  0  0  0
   -3.0894    1.8484   -1.7395 C   0  0  0  0  0  0  0  0  0  0  0  0
   -2.2050    1.0580   -0.9784 C   0  0  0  0  0  0  0  0  0  0  0  0
   -0.8040    1.1844   -1.0752 C   0  0  0  0  0  0  0  0  0  0  0  0
    0.0662    0.3906   -0.3112 C   0  0  0  0  0  0  0  0  0  0  0  0
    1.4757    0.5419   -0.4299 C   0  0  0  0  0  0  0  0  0  0  0  0
    2.4418   -0.2085    0.2906 C   0  0  0  0  0  0  0  0  0  0  0  0
    3.8811   -0.0240    0.1391 C   0  0  0  0  0  0  0  0  0  0  0  0
    4.7897    0.1175    1.2015 C   0  0  0  0  0  0  0  0  0  0  0  0
    6.1511    0.3067    1.1416 N   0  0  0  0  0  0  0  0  0  0  0  0
    6.7925    0.3624   -0.0593 C   0  0  0  0  0  0  0  0  0  0  0  0
    6.0194    0.2287   -1.2276 C   0  0  0  0  0  0  0  0  0  0  0  0
    6.4723    0.2582   -2.4914 N   0  0  0  0  0  0  0  0  0  0  0  0
    5.1499    0.0431   -3.4685 S   0  0  0  0  0  0  0  0  0  0  0  0
    3.9450   -0.0770   -2.3357 N   0  0  0  0  0  0  0  0  0  0  0  0
    4.5267    0.0326   -1.1257 C   0  0  0  0  0  0  0  0  0  0  0  0
    1.9016   -1.1727    1.1909 C   0  0  0  0  0  0  0  0  0  0  0  0
    2.6004   -2.0066    1.9824 N   0  0  0  0  0  0  0  0  0  0  0  0
    1.5019   -2.9228    2.8163 S   0  0  0  0  0  0  0  0  0  0  0  0
    0.0814   -2.3064    2.2303 N   0  0  0  0  0  0  0  0  0  0  0  0
    0.4073   -1.3538    1.3373 C   0  0  0  0  0  0  0  0  0  0  0  0
   -0.5097   -0.5574    0.5733 C   0  0  0  0  0  0  0  0  0  0  0  0
   -1.9103   -0.6948    0.6806 C   0  0  0  0  0  0  0  0  0  0  0  0
   -2.7618    0.1099   -0.0921 C   0  0  0  0  0  0  0  0  0  0  0  0
   -4.1493    0.0282   -0.0372 C   0  0  0  0  0  0  0  0  0  0  0  0
   -4.9391   -0.6644    1.8416 H   0  0  0  0  0  0  0  0  0  0  0  0
   -4.9182   -1.9002    0.5316 H   0  0  0  0  0  0  0  0  0  0  0  0
   -7.3470   -0.7737    0.6681 H   0  0  0  0  0  0  0  0  0  0  0  0
   -7.1185    1.1326   -1.1271 H   0  0  0  0  0  0  0  0  0  0  0  0
   -2.7093    2.5920   -2.4367 H   0  0  0  0  0  0  0  0  0  0  0  0
   -0.3904    1.9193   -1.7658 H   0  0  0  0  0  0  0  0  0  0  0  0
    1.8456    1.2956   -1.1307 H   0  0  0  0  0  0  0  0  0  0  0  0
    4.4214    0.0905    2.2289 H   0  0  0  0  0  0  0  0  0  0  0  0
    7.8646    0.5064   -0.0559 H   0  0  0  0  0  0  0  0  0  0  0  0
   -2.3230   -1.4313    1.3676 H   0  0  0  0  0  0  0  0  0  0  0  0
  1  2  1  0
  2  3  2  0
  3  4  1  0
  4  5  2  0
  5  6  1  0
  6  7  2  0
  7  8  1  0
  8  9  2  0
  9 10  1  0
 10 11  2  0
 11 12  1  0
 12 13  2  0
 13 14  1  0
 14 15  2  0
 15 16  1  0
 16 17  2  0
 17 18  1  0
 18 19  1  0
 19 20  2  0
 11 21  1  0
 21 22  2  0
 22 23  1  0
 23 24  1  0
 24 25  2  0
 25 26  1  0
 26 27  2  0
 27 28  1  0
 28 29  2  0
 29  1  1  0
 29  4  1  0
 28  7  1  0
 26  9  1  0
 20 12  1  0
 25 21  1  0
 20 16  1  0
  1 30  1  0
  1 31  1  0
  2 32  1  0
  3 33  1  0
  6 34  1  0
  8 35  1  0
 10 36  1  0
 13 37  1  0
 15 38  1  0
 27 39  1  0
M  END
