
     RDKit          3D

 45 52  0  0  0  0  0  0  0  0999 V2000
    5.5581    0.2990    0.2993 C   0  0  0  0  0  0  0  0  0  0  0  0
    6.1525    1.3025   -0.7071 C   0  0  0  0  0  0  0  0  0  0  0  0
    5.2021    1.8584   -1.4953 C   0  0  0  0  0  0  0  0  0  0  0  0
    3.9817    1.2911   -1.0858 C   0  0  0  0  0  0  0  0  0  0  0  0
    2.6890    1.3998   -1.4396 O   0  0  0  0  0  0  0  0  0  0  0  0
    1.9856    0.5447   -0.6185 C   0  0  0  0  0  0  0  0  0  0  0  0
    2.8530   -0.1100    0.2654 C   0  0  0  0  0  0  0  0  0  0  0  0
    4.1264    0.3912   -0.0611 C   0  0  0  0  0  0  0  0  0  0  0  0
    2.3094   -1.0333    1.1915 C   0  0  0  0  0  0  0  0  0  0  0  0
    3.1894   -1.6916    2.0800 C   0  0  0  0  0  0  0  0  0  0  0  0
    2.7078   -2.6079    3.0079 C   0  0  0  0  0  0  0  0  0  0  0  0
    1.3493   -2.8764    3.0586 C   0  0  0  0  0  0  0  0  0  0  0  0
    0.4701   -2.2283    2.1820 C   0  0  0  0  0  0  0  0  0  0  0  0
    0.9057   -1.2837    1.2162 C   0  0  0  0  0  0  0  0  0  0  0  0
    0.0292   -0.5998    0.3012 C   0  0  0  0  0  0  0  0  0  0  0  0
   -1.4071   -0.8115    0.2858 C   0  0  0  0  0  0  0  0  0  0  0  0
   -2.3478   -0.1864   -0.5748 C   0  0  0  0  0  0  0  0  0  0  0  0
   -3.7743   -0.4300   -0.5082 C   0  0  0  0  0  0  0  0  0  0  0  0
   -4.4187   -2.0208   -0.8230 S   0  0  0  0  0  0  0  0  0  0  0  0
   -6.0639   -1.5311   -0.5688 C   0  0  0  0  0  0  0  0  0  0  0  0
   -6.0539   -0.2225   -0.2587 C   0  0  0  0  0  0  0  0  0  0  0  0
   -7.1364    0.5520    0.0217 O   0  0  0  0  0  0  0  0  0  0  0  0
   -6.5018    1.7586    0.2593 C   0  0  0  0  0  0  0  0  0  0  0  0
   -5.1077    1.7106    0.1276 C   0  0  0  0  0  0  0  0  0  0  0  0
   -4.8208    0.3792   -0.2228 C   0  0  0  0  0  0  0  0  0  0  0  0
   -1.7462    0.7065   -1.4693 C   0  0  0  0  0  0  0  0  0  0  0  0
   -2.4295    1.4159   -2.4313 C   0  0  0  0  0  0  0  0  0  0  0  0
   -1.3835    2.4145   -3.3496 S   0  0  0  0  0  0  0  0  0  0  0  0
   -0.0039    1.8809   -2.4789 C   0  0  0  0  0  0  0  0  0  0  0  0
   -0.3213    0.9625   -1.5026 C   0  0  0  0  0  0  0  0  0  0  0  0
    0.6024    0.3332   -0.6330 C   0  0  0  0  0  0  0  0  0  0  0  0
    5.7479    0.6241    1.3258 H   0  0  0  0  0  0  0  0  0  0  0  0
    5.9634   -0.7024    0.1304 H   0  0  0  0  0  0  0  0  0  0  0  0
    7.2085    1.5240   -0.7628 H   0  0  0  0  0  0  0  0  0  0  0  0
    5.3284    2.5863   -2.2808 H   0  0  0  0  0  0  0  0  0  0  0  0
    4.2578   -1.4979    2.0580 H   0  0  0  0  0  0  0  0  0  0  0  0
    3.3912   -3.1101    3.6871 H   0  0  0  0  0  0  0  0  0  0  0  0
    0.9628   -3.5924    3.7799 H   0  0  0  0  0  0  0  0  0  0  0  0
   -0.5793   -2.4909    2.2791 H   0  0  0  0  0  0  0  0  0  0  0  0
   -1.8365   -1.5090    1.0044 H   0  0  0  0  0  0  0  0  0  0  0  0
   -6.9089   -2.1982   -0.6545 H   0  0  0  0  0  0  0  0  0  0  0  0
   -7.1775    2.5649    0.5139 H   0  0  0  0  0  0  0  0  0  0  0  0
   -4.4244    2.5357    0.2708 H   0  0  0  0  0  0  0  0  0  0  0  0
   -3.4858    1.4135   -2.6620 H   0  0  0  0  0  0  0  0  0  0  0  0
    0.9580    2.2853   -2.7572 H   0  0  0  0  0  0  0  0  0  0  0  0
  1  2  1  0
  2  3  2  0
  3  4  1  0
  4  5  1  0
  5  6  1  0
  6  7  2  0
  7  8  1  0
  7  9  1  0
  9 10  2  0
 10 11  1  0
 11 12  2  0
 12 13  1  0
 13 14  2  0
 14 15  1  0
 15 16  1  0
 16 17  2  0
 17 18  1  0
 18 19  1  0
 19 20  1  0
 20 21  2  0
 21 22  1  0
 22 23  1  0
 23 24  2  0
 24 25  1  0
 17 26  1  0
 26 27  2  0
 27 28  1  0
 28 29  1  0
 29 30  2  0
 30 31  1  0
  8  1  1  0
 14  9  1  0
 31 15  2  0
  8  4  2  0
 25 18  2  0
 30 26  1  0
 31  6  1  0
 25 21  1  0
  1 32  1  0
  1 33  1  0
  2 34  1  0
  3 35  1  0
 10 36  1  0
 11 37  1  0
 12 38  1  0
 13 39  1  0
 16 40  1  0
 20 41  1  0
 23 42  1  0
 24 43  1  0
 27 44  1  0
 29 45  1  0
M  END
