
     RDKit          3D

 41 47  0  0  0  0  0  0  0  0999 V2000
    5.4580   -0.8487    0.1180 C   0  0  0  0  0  0  0  0  0  0  0  0
    6.4225    0.3429    0.0723 C   0  0  0  0  0  0  0  0  0  0  0  0
    5.7650    1.5239    0.0567 C   0  0  0  0  0  0  0  0  0  0  0  0
    4.3910    1.2118    0.0893 C   0  0  0  0  0  0  0  0  0  0  0  0
    3.0132    2.1500    0.0919 S   0  0  0  0  0  0  0  0  0  0  0  0
    1.9497    0.7443    0.1459 C   0  0  0  0  0  0  0  0  0  0  0  0
    2.7790   -0.3886    0.1561 C   0  0  0  0  0  0  0  0  0  0  0  0
    4.1530   -0.1357    0.1253 C   0  0  0  0  0  0  0  0  0  0  0  0
    2.1586   -1.6798    0.1966 C   0  0  0  0  0  0  0  0  0  0  0  0
    2.8223   -2.8738    0.2123 C   0  0  0  0  0  0  0  0  0  0  0  0
    1.6827   -4.1573    0.2603 S   0  0  0  0  0  0  0  0  0  0  0  0
    0.3522   -3.0601    0.2579 C   0  0  0  0  0  0  0  0  0  0  0  0
    0.7446   -1.7347    0.2215 C   0  0  0  0  0  0  0  0  0  0  0  0
   -0.1631   -0.6437    0.2117 C   0  0  0  0  0  0  0  0  0  0  0  0
   -1.6020   -0.8040    0.2352 C   0  0  0  0  0  0  0  0  0  0  0  0
   -2.5133    0.2658    0.2157 C   0  0  0  0  0  0  0  0  0  0  0  0
   -3.9495    0.0797    0.2360 C   0  0  0  0  0  0  0  0  0  0  0  0
   -4.7120   -0.1723    1.3190 C   0  0  0  0  0  0  0  0  0  0  0  0
   -6.1281   -0.3615    1.0443 C   0  0  0  0  0  0  0  0  0  0  0  0
   -6.4777   -0.2777   -0.2525 C   0  0  0  0  0  0  0  0  0  0  0  0
   -4.9838    0.0757   -1.3461 Si  0  0  0  0  0  4  0  0  0  0  0  0
   -1.8792    1.5164    0.1986 C   0  0  0  0  0  0  0  0  0  0  0  0
   -2.5773    2.7036    0.2217 C   0  0  0  0  0  0  0  0  0  0  0  0
   -1.5366    4.0562    0.1878 S   0  0  0  0  0  0  0  0  0  0  0  0
   -0.1400    3.0578    0.1624 C   0  0  0  0  0  0  0  0  0  0  0  0
   -0.4285    1.7106    0.1760 C   0  0  0  0  0  0  0  0  0  0  0  0
    0.5156    0.6442    0.1745 C   0  0  0  0  0  0  0  0  0  0  0  0
    5.6135   -1.4330    1.0292 H   0  0  0  0  0  0  0  0  0  0  0  0
    5.5804   -1.4751   -0.7699 H   0  0  0  0  0  0  0  0  0  0  0  0
    7.4971    0.2328    0.0552 H   0  0  0  0  0  0  0  0  0  0  0  0
    6.1930    2.5147    0.0256 H   0  0  0  0  0  0  0  0  0  0  0  0
    3.8780   -3.0952    0.1995 H   0  0  0  0  0  0  0  0  0  0  0  0
   -0.6407   -3.4842    0.2845 H   0  0  0  0  0  0  0  0  0  0  0  0
   -2.0256   -1.8066    0.2659 H   0  0  0  0  0  0  0  0  0  0  0  0
   -4.3304   -0.2389    2.3310 H   0  0  0  0  0  0  0  0  0  0  0  0
   -6.8288   -0.5572    1.8469 H   0  0  0  0  0  0  0  0  0  0  0  0
   -7.4669   -0.3870   -0.6682 H   0  0  0  0  0  0  0  0  0  0  0  0
   -4.6698   -1.0684   -2.2383 H   0  0  0  0  0  0  0  0  0  0  0  0
   -5.0735    1.4145   -1.9804 H   0  0  0  0  0  0  0  0  0  0  0  0
   -3.6459    2.8644    0.2600 H   0  0  0  0  0  0  0  0  0  0  0  0
    0.8035    3.5741    0.1443 H   0  0  0  0  0  0  0  0  0  0  0  0
  1  2  1  0
  2  3  2  0
  3  4  1  0
  4  5  1  0
  5  6  1  0
  6  7  2  0
  7  8  1  0
  7  9  1  0
  9 10  2  0
 10 11  1  0
 11 12  1  0
 12 13  2  0
 13 14  1  0
 14 15  1  0
 15 16  2  0
 16 17  1  0
 17 18  2  0
 18 19  1  0
 19 20  2  0
 20 21  1  0
 16 22  1  0
 22 23  2  0
 23 24  1  0
 24 25  1  0
 25 26  2  0
 26 27  1  0
  8  1  1  0
 13  9  1  0
 27 14  2  0
  8  4  2  0
 21 17  1  0
 26 22  1  0
 27  6  1  0
  1 28  1  0
  1 29  1  0
  2 30  1  0
  3 31  1  0
 10 32  1  0
 12 33  1  0
 15 34  1  0
 18 35  1  0
 19 36  1  0
 20 37  1  0
 21 38  1  0
 21 39  1  0
 23 40  1  0
 25 41  1  0
M  END
