
     RDKit          3D

 34 38  0  0  0  0  0  0  0  0999 V2000
   -5.3444    0.7190    0.4057 C   0  0  0  0  0  0  0  0  0  0  0  0
   -6.2641   -0.5058    0.5064 C   0  0  0  0  0  0  0  0  0  0  0  0
   -5.5692   -1.6658    0.4687 C   0  0  0  0  0  0  0  0  0  0  0  0
   -4.2112   -1.3091    0.3463 C   0  0  0  0  0  0  0  0  0  0  0  0
   -2.8003   -2.1886    0.2438 S   0  0  0  0  0  0  0  0  0  0  0  0
   -1.8433   -0.7222    0.1312 C   0  0  0  0  0  0  0  0  0  0  0  0
   -2.6625    0.4255    0.1786 C   0  0  0  0  0  0  0  0  0  0  0  0
   -2.0537    1.6993    0.0994 C   0  0  0  0  0  0  0  0  0  0  0  0
   -0.6665    1.8159   -0.0275 C   0  0  0  0  0  0  0  0  0  0  0  0
    0.1400    0.6763   -0.0756 C   0  0  0  0  0  0  0  0  0  0  0  0
    1.5355    0.7429   -0.2043 C   0  0  0  0  0  0  0  0  0  0  0  0
    2.3017   -0.4281   -0.2489 C   0  0  0  0  0  0  0  0  0  0  0  0
    1.6160   -1.6394   -0.1675 C   0  0  0  0  0  0  0  0  0  0  0  0
    0.2742   -1.7570   -0.0361 N   0  0  0  0  0  0  0  0  0  0  0  0
   -0.4379   -0.6043    0.0049 C   0  0  0  0  0  0  0  0  0  0  0  0
    3.7533   -0.3596   -0.3837 C   0  0  0  0  0  0  0  0  0  0  0  0
    4.4499    0.3117   -1.3264 C   0  0  0  0  0  0  0  0  0  0  0  0
    5.8976    0.2100   -1.2238 C   0  0  0  0  0  0  0  0  0  0  0  0
    6.3504   -0.5322   -0.1970 C   0  0  0  0  0  0  0  0  0  0  0  0
    4.9329   -1.2332    0.8208 Si  0  0  0  0  0  4  0  0  0  0  0  0
   -4.0211    0.0457    0.3044 C   0  0  0  0  0  0  0  0  0  0  0  0
   -5.5742    1.3065   -0.4876 H   0  0  0  0  0  0  0  0  0  0  0  0
   -5.4210    1.3375    1.3041 H   0  0  0  0  0  0  0  0  0  0  0  0
   -7.3380   -0.4324    0.5960 H   0  0  0  0  0  0  0  0  0  0  0  0
   -5.9612   -2.6714    0.5196 H   0  0  0  0  0  0  0  0  0  0  0  0
   -2.6671    2.5974    0.1343 H   0  0  0  0  0  0  0  0  0  0  0  0
   -0.2251    2.8083   -0.0896 H   0  0  0  0  0  0  0  0  0  0  0  0
    2.0271    1.7119   -0.2639 H   0  0  0  0  0  0  0  0  0  0  0  0
    2.1374   -2.5921   -0.2229 H   0  0  0  0  0  0  0  0  0  0  0  0
    3.9983    0.8874   -2.1256 H   0  0  0  0  0  0  0  0  0  0  0  0
    6.5423    0.7033   -1.9415 H   0  0  0  0  0  0  0  0  0  0  0  0
    7.3793   -0.7343    0.0526 H   0  0  0  0  0  0  0  0  0  0  0  0
    4.8385   -2.7110    0.7184 H   0  0  0  0  0  0  0  0  0  0  0  0
    4.8866   -0.6551    2.1867 H   0  0  0  0  0  0  0  0  0  0  0  0
  1  2  1  0
  2  3  2  0
  3  4  1  0
  4  5  1  0
  5  6  1  0
  6  7  2  0
  7  8  1  0
  8  9  2  0
  9 10  1  0
 10 11  2  0
 11 12  1  0
 12 13  2  0
 13 14  1  0
 14 15  2  0
 12 16  1  0
 16 17  2  0
 17 18  1  0
 18 19  2  0
 19 20  1  0
  7 21  1  0
 21  1  1  0
 21  4  2  0
 15  6  1  0
 20 16  1  0
 15 10  1  0
  1 22  1  0
  1 23  1  0
  2 24  1  0
  3 25  1  0
  8 26  1  0
  9 27  1  0
 11 28  1  0
 13 29  1  0
 17 30  1  0
 18 31  1  0
 19 32  1  0
 20 33  1  0
 20 34  1  0
M  END
