
     RDKit          3D

 42 48  0  0  0  0  0  0  0  0999 V2000
   -3.0263    3.7065   -0.6948 Si  0  0  0  0  0  4  0  0  0  0  0  0
   -1.5401    2.6267   -0.3981 C   0  0  0  0  0  0  0  0  0  0  0  0
   -1.8723    1.3279   -0.2484 C   0  0  0  0  0  0  0  0  0  0  0  0
   -0.9859    0.2285    0.0366 C   0  0  0  0  0  0  0  0  0  0  0  0
   -1.5451   -0.9116    0.6111 C   0  0  0  0  0  0  0  0  0  0  0  0
   -0.3450   -1.9542    1.2437 S   0  0  0  0  0  0  0  0  0  0  0  0
    0.9421   -1.0418    0.5543 C   0  0  0  0  0  0  0  0  0  0  0  0
    2.3317   -1.3299    0.6484 C   0  0  0  0  0  0  0  0  0  0  0  0
    3.2914   -0.5618   -0.0340 C   0  0  0  0  0  0  0  0  0  0  0  0
    4.7141   -0.8515    0.0258 C   0  0  0  0  0  0  0  0  0  0  0  0
    5.5272   -1.4213   -0.9348 C   0  0  0  0  0  0  0  0  0  0  0  0
    6.8788   -1.5428   -0.4986 C   0  0  0  0  0  0  0  0  0  0  0  0
    7.0508   -1.0661    0.7816 C   0  0  0  0  0  0  0  0  0  0  0  0
    5.5899   -0.4792    1.4502 S   0  0  0  0  0  0  0  0  0  0  0  0
    2.7355    0.4379   -0.8418 C   0  0  0  0  0  0  0  0  0  0  0  0
    3.4883    1.2597   -1.6576 C   0  0  0  0  0  0  0  0  0  0  0  0
    2.5125    2.3007   -2.6211 S   0  0  0  0  0  0  0  0  0  0  0  0
    1.0611    1.6756   -1.9442 C   0  0  0  0  0  0  0  0  0  0  0  0
    1.3550    0.7676   -0.9672 C   0  0  0  0  0  0  0  0  0  0  0  0
    0.4090    0.0290   -0.1538 C   0  0  0  0  0  0  0  0  0  0  0  0
   -2.9964   -1.1995    0.7099 C   0  0  0  0  0  0  0  0  0  0  0  0
   -3.5026   -2.4243    1.1777 C   0  0  0  0  0  0  0  0  0  0  0  0
   -4.8762   -2.6741    1.1888 C   0  0  0  0  0  0  0  0  0  0  0  0
   -5.7632   -1.7091    0.7254 C   0  0  0  0  0  0  0  0  0  0  0  0
   -5.2820   -0.4853    0.2583 C   0  0  0  0  0  0  0  0  0  0  0  0
   -3.9046   -0.2105    0.2506 C   0  0  0  0  0  0  0  0  0  0  0  0
   -3.3470    1.0979   -0.1871 C   0  0  0  0  0  0  0  0  0  0  0  0
   -4.0913    2.2005   -0.4256 C   0  0  0  0  0  0  0  0  0  0  0  0
   -3.2123    4.7280    0.3629 H   0  0  0  0  0  0  0  0  0  0  0  0
   -3.0935    4.2040   -2.0896 H   0  0  0  0  0  0  0  0  0  0  0  0
   -0.5592    3.0677   -0.3361 H   0  0  0  0  0  0  0  0  0  0  0  0
    2.6558   -2.1783    1.2495 H   0  0  0  0  0  0  0  0  0  0  0  0
    5.1679   -1.7377   -1.9070 H   0  0  0  0  0  0  0  0  0  0  0  0
    7.6822   -1.9606   -1.0928 H   0  0  0  0  0  0  0  0  0  0  0  0
    7.9634   -1.0350    1.3608 H   0  0  0  0  0  0  0  0  0  0  0  0
    4.5625    1.3011   -1.7767 H   0  0  0  0  0  0  0  0  0  0  0  0
    0.1110    2.0100   -2.3301 H   0  0  0  0  0  0  0  0  0  0  0  0
   -2.8404   -3.2109    1.5292 H   0  0  0  0  0  0  0  0  0  0  0  0
   -5.2503   -3.6281    1.5519 H   0  0  0  0  0  0  0  0  0  0  0  0
   -6.8322   -1.9068    0.7278 H   0  0  0  0  0  0  0  0  0  0  0  0
   -6.0018    0.2461   -0.0963 H   0  0  0  0  0  0  0  0  0  0  0  0
   -5.1628    2.3047   -0.3895 H   0  0  0  0  0  0  0  0  0  0  0  0
  1  2  1  0
  2  3  2  0
  3  4  1  0
  4  5  2  0
  5  6  1  0
  6  7  1  0
  7  8  1  0
  8  9  2  0
  9 10  1  0
 10 11  2  0
 11 12  1  0
 12 13  2  0
 13 14  1  0
  9 15  1  0
 15 16  2  0
 16 17  1  0
 17 18  1  0
 18 19  2  0
 19 20  1  0
  5 21  1  0
 21 22  2  0
 22 23  1  0
 23 24  2  0
 24 25  1  0
 25 26  2  0
 26 27  1  0
 27 28  2  0
 28  1  1  0
 27  3  1  0
 20  4  1  0
 26 21  1  0
 20  7  2  0
 14 10  1  0
 19 15  1  0
  1 29  1  0
  1 30  1  0
  2 31  1  0
  8 32  1  0
 11 33  1  0
 12 34  1  0
 13 35  1  0
 16 36  1  0
 18 37  1  0
 22 38  1  0
 23 39  1  0
 24 40  1  0
 25 41  1  0
 28 42  1  0
M  END
