
     RDKit          3D

 32 36  0  0  0  0  0  0  0  0999 V2000
    3.8744    1.8549    0.6545 C   0  0  0  0  0  0  0  0  0  0  0  0
    5.3128    1.3161    0.5969 C   0  0  0  0  0  0  0  0  0  0  0  0
    5.3525   -0.0160    0.3593 C   0  0  0  0  0  0  0  0  0  0  0  0
    4.0126   -0.4386    0.2472 C   0  0  0  0  0  0  0  0  0  0  0  0
    3.2884   -1.9358   -0.0406 S   0  0  0  0  0  0  0  0  0  0  0  0
    1.7692   -1.2056    0.0480 C   0  0  0  0  0  0  0  0  0  0  0  0
    0.4521   -1.6941   -0.0738 C   0  0  0  0  0  0  0  0  0  0  0  0
   -0.3639   -0.6238    0.0874 C   0  0  0  0  0  0  0  0  0  0  0  0
    0.4176    0.6780    0.3486 C   0  0  0  0  0  0  0  0  0  0  0  0
    1.8070    0.1527    0.2932 C   0  0  0  0  0  0  0  0  0  0  0  0
    3.1198    0.6013    0.4094 C   0  0  0  0  0  0  0  0  0  0  0  0
   -1.8119   -0.6667    0.0797 C   0  0  0  0  0  0  0  0  0  0  0  0
   -2.5783   -1.3676    1.0416 C   0  0  0  0  0  0  0  0  0  0  0  0
   -4.0102   -1.3989    1.0546 C   0  0  0  0  0  0  0  0  0  0  0  0
   -4.8216   -0.7406    0.1061 C   0  0  0  0  0  0  0  0  0  0  0  0
   -4.0623   -0.0658   -0.8502 C   0  0  0  0  0  0  0  0  0  0  0  0
   -4.6364    0.6306   -1.8846 C   0  0  0  0  0  0  0  0  0  0  0  0
   -3.4416    1.3207   -2.9082 S   0  0  0  0  0  0  0  0  0  0  0  0
   -2.1543    0.6788   -1.9643 C   0  0  0  0  0  0  0  0  0  0  0  0
   -2.6176   -0.0234   -0.8754 C   0  0  0  0  0  0  0  0  0  0  0  0
    3.7056    2.5965   -0.1309 H   0  0  0  0  0  0  0  0  0  0  0  0
    3.6576    2.2793    1.6385 H   0  0  0  0  0  0  0  0  0  0  0  0
    6.1809    1.9443    0.7330 H   0  0  0  0  0  0  0  0  0  0  0  0
    6.2264   -0.6432    0.2704 H   0  0  0  0  0  0  0  0  0  0  0  0
    0.1714   -2.7208   -0.2544 H   0  0  0  0  0  0  0  0  0  0  0  0
    0.2467    1.4281   -0.4274 H   0  0  0  0  0  0  0  0  0  0  0  0
    0.1821    1.0880    1.3354 H   0  0  0  0  0  0  0  0  0  0  0  0
   -2.0560   -1.9102    1.8311 H   0  0  0  0  0  0  0  0  0  0  0  0
   -4.4998   -1.9661    1.8473 H   0  0  0  0  0  0  0  0  0  0  0  0
   -5.9025   -0.7792    0.1332 H   0  0  0  0  0  0  0  0  0  0  0  0
   -5.6847    0.7712   -2.1095 H   0  0  0  0  0  0  0  0  0  0  0  0
   -1.1359    0.8559   -2.2797 H   0  0  0  0  0  0  0  0  0  0  0  0
  1  2  1  0
  2  3  2  0
  3  4  1  0
  4  5  1  0
  5  6  1  0
  6  7  1  0
  7  8  2  0
  8  9  1  0
  9 10  1  0
 10 11  1  0
  8 12  1  0
 12 13  2  0
 13 14  1  0
 14 15  2  0
 15 16  1  0
 16 17  2  0
 17 18  1  0
 18 19  1  0
 19 20  2  0
 11  1  1  0
 20 12  1  0
 11  4  2  0
 20 16  1  0
 10  6  2  0
  1 21  1  0
  1 22  1  0
  2 23  1  0
  3 24  1  0
  7 25  1  0
  9 26  1  0
  9 27  1  0
 13 28  1  0
 14 29  1  0
 15 30  1  0
 17 31  1  0
 19 32  1  0
M  END
