
     RDKit          3D

 42 48  0  0  0  0  0  0  0  0999 V2000
   -0.4087   -0.9869    0.1105 C   0  0  0  0  0  0  0  0  0  0  0  0
    0.8979   -0.2601   -0.2338 C   0  0  0  0  0  0  0  0  0  0  0  0
    0.6923    0.9769   -0.7602 C   0  0  0  0  0  0  0  0  0  0  0  0
    2.2196    1.8430   -1.1737 Si  0  0  0  0  0  4  0  0  0  0  0  0
    3.1539    0.2817   -0.5283 C   0  0  0  0  0  0  0  0  0  0  0  0
    2.2791   -0.6571   -0.0943 C   0  0  0  0  0  0  0  0  0  0  0  0
    4.5629    0.1613   -0.4720 C   0  0  0  0  0  0  0  0  0  0  0  0
    5.6160    0.8156   -1.7223 S   0  0  0  0  0  0  0  0  0  0  0  0
    7.0732    0.2614   -0.9736 C   0  0  0  0  0  0  0  0  0  0  0  0
    6.7282   -0.3796    0.1546 C   0  0  0  0  0  0  0  0  0  0  0  0
    7.5783   -0.9658    1.0405 O   0  0  0  0  0  0  0  0  0  0  0  0
    6.6621   -1.4340    1.9641 C   0  0  0  0  0  0  0  0  0  0  0  0
    5.3290   -1.1434    1.6472 C   0  0  0  0  0  0  0  0  0  0  0  0
    5.3846   -0.4392    0.4286 C   0  0  0  0  0  0  0  0  0  0  0  0
   -0.6836    1.1438   -0.7982 C   0  0  0  0  0  0  0  0  0  0  0  0
   -1.5277    2.1125   -1.1946 N   0  0  0  0  0  0  0  0  0  0  0  0
   -2.8240    1.6558   -0.9655 C   0  0  0  0  0  0  0  0  0  0  0  0
   -4.0414    2.2989   -1.2117 C   0  0  0  0  0  0  0  0  0  0  0  0
   -5.2206    1.6189   -0.8897 C   0  0  0  0  0  0  0  0  0  0  0  0
   -5.2041    0.3316   -0.3367 C   0  0  0  0  0  0  0  0  0  0  0  0
   -6.3959   -0.3390   -0.0187 C   0  0  0  0  0  0  0  0  0  0  0  0
   -6.3714   -1.6227    0.5323 C   0  0  0  0  0  0  0  0  0  0  0  0
   -5.1559   -2.2576    0.7746 C   0  0  0  0  0  0  0  0  0  0  0  0
   -3.9579   -1.6121    0.4673 C   0  0  0  0  0  0  0  0  0  0  0  0
   -3.9678   -0.3163   -0.0892 C   0  0  0  0  0  0  0  0  0  0  0  0
   -2.7547    0.3582   -0.4093 C   0  0  0  0  0  0  0  0  0  0  0  0
   -1.3799    0.0665   -0.3180 C   0  0  0  0  0  0  0  0  0  0  0  0
   -0.5191   -1.9042   -0.4742 H   0  0  0  0  0  0  0  0  0  0  0  0
   -0.4784   -1.1929    1.1820 H   0  0  0  0  0  0  0  0  0  0  0  0
    2.4105    2.0558   -2.6326 H   0  0  0  0  0  0  0  0  0  0  0  0
    2.4839    3.0370   -0.3282 H   0  0  0  0  0  0  0  0  0  0  0  0
    2.5484   -1.6208    0.3167 H   0  0  0  0  0  0  0  0  0  0  0  0
    8.0601    0.4257   -1.3801 H   0  0  0  0  0  0  0  0  0  0  0  0
    7.1108   -1.9549    2.7999 H   0  0  0  0  0  0  0  0  0  0  0  0
    4.4637   -1.4103    2.2361 H   0  0  0  0  0  0  0  0  0  0  0  0
   -1.2913    3.0124   -1.5884 H   0  0  0  0  0  0  0  0  0  0  0  0
   -4.0791    3.2956   -1.6395 H   0  0  0  0  0  0  0  0  0  0  0  0
   -6.1702    2.1159   -1.0798 H   0  0  0  0  0  0  0  0  0  0  0  0
   -7.3579    0.1354   -0.1987 H   0  0  0  0  0  0  0  0  0  0  0  0
   -7.3042   -2.1265    0.7719 H   0  0  0  0  0  0  0  0  0  0  0  0
   -5.1398   -3.2562    1.2030 H   0  0  0  0  0  0  0  0  0  0  0  0
   -3.0210   -2.1243    0.6635 H   0  0  0  0  0  0  0  0  0  0  0  0
  1  2  1  0
  2  3  2  0
  3  4  1  0
  4  5  1  0
  5  6  2  0
  5  7  1  0
  7  8  1  0
  8  9  1  0
  9 10  2  0
 10 11  1  0
 11 12  1  0
 12 13  2  0
 13 14  1  0
  3 15  1  0
 15 16  1  0
 16 17  1  0
 17 18  2  0
 18 19  1  0
 19 20  2  0
 20 21  1  0
 21 22  2  0
 22 23  1  0
 23 24  2  0
 24 25  1  0
 25 26  2  0
 26 27  1  0
 27  1  1  0
  6  2  1  0
 14  7  2  0
 27 15  2  0
 14 10  1  0
 26 17  1  0
 25 20  1  0
  1 28  1  0
  1 29  1  0
  4 30  1  0
  4 31  1  0
  6 32  1  0
  9 33  1  0
 12 34  1  0
 13 35  1  0
 16 36  1  0
 18 37  1  0
 19 38  1  0
 21 39  1  0
 22 40  1  0
 23 41  1  0
 24 42  1  0
M  END
