
     RDKit          3D

 30 35  0  0  0  0  0  0  0  0999 V2000
    0.8054    1.2251   -1.0810 C   0  0  0  0  0  0  0  0  0  0  0  0
   -0.1207    0.3477   -0.3124 C   0  0  0  0  0  0  0  0  0  0  0  0
    0.5346   -0.5449    0.4936 C   0  0  0  0  0  0  0  0  0  0  0  0
   -0.2441   -1.3628    1.2116 O   0  0  0  0  0  0  0  0  0  0  0  0
   -1.5299   -0.9860    0.8562 C   0  0  0  0  0  0  0  0  0  0  0  0
   -2.7296   -1.5457    1.3376 C   0  0  0  0  0  0  0  0  0  0  0  0
   -3.9673   -1.0457    0.8732 C   0  0  0  0  0  0  0  0  0  0  0  0
   -3.8526   -0.0038   -0.0545 C   0  0  0  0  0  0  0  0  0  0  0  0
   -4.9500    0.6080   -0.6165 C   0  0  0  0  0  0  0  0  0  0  0  0
   -4.4947    1.8582   -1.7250 S   0  0  0  0  0  0  0  0  0  0  0  0
   -2.8094    1.5926   -1.4630 C   0  0  0  0  0  0  0  0  0  0  0  0
   -2.6666    0.5826   -0.5600 C   0  0  0  0  0  0  0  0  0  0  0  0
   -1.4456    0.0533   -0.0696 C   0  0  0  0  0  0  0  0  0  0  0  0
    1.9321   -0.4129    0.3971 C   0  0  0  0  0  0  0  0  0  0  0  0
    2.1468    0.6449   -0.5431 C   0  0  0  0  0  0  0  0  0  0  0  0
    3.4324    1.0728   -0.9051 C   0  0  0  0  0  0  0  0  0  0  0  0
    4.5853    0.4703   -0.3501 C   0  0  0  0  0  0  0  0  0  0  0  0
    4.4078   -0.5905    0.5934 C   0  0  0  0  0  0  0  0  0  0  0  0
    5.3862   -1.2681    1.2127 N   0  0  0  0  0  0  0  0  0  0  0  0
    4.6341   -2.3817    2.1945 S   0  0  0  0  0  0  0  0  0  0  0  0
    3.0341   -2.0591    1.8822 N   0  0  0  0  0  0  0  0  0  0  0  0
    3.0189   -1.0584    0.9894 C   0  0  0  0  0  0  0  0  0  0  0  0
    0.7037    2.2773   -0.8043 H   0  0  0  0  0  0  0  0  0  0  0  0
    0.7243    1.0684   -2.1594 H   0  0  0  0  0  0  0  0  0  0  0  0
   -2.6957   -2.3553    2.0602 H   0  0  0  0  0  0  0  0  0  0  0  0
   -4.9100   -1.4514    1.2210 H   0  0  0  0  0  0  0  0  0  0  0  0
   -5.9993    0.4049   -0.4509 H   0  0  0  0  0  0  0  0  0  0  0  0
   -2.0664    2.1831   -1.9787 H   0  0  0  0  0  0  0  0  0  0  0  0
    3.5533    1.8811   -1.6242 H   0  0  0  0  0  0  0  0  0  0  0  0
    5.5831    0.7957   -0.6251 H   0  0  0  0  0  0  0  0  0  0  0  0
  1  2  1  0
  2  3  2  0
  3  4  1  0
  4  5  1  0
  5  6  1  0
  6  7  2  0
  7  8  1  0
  8  9  2  0
  9 10  1  0
 10 11  1  0
 11 12  2  0
 12 13  1  0
  3 14  1  0
 14 15  2  0
 15 16  1  0
 16 17  2  0
 17 18  1  0
 18 19  2  0
 19 20  1  0
 20 21  1  0
 21 22  2  0
 15  1  1  0
 22 18  1  0
  2 13  1  0
 22 14  1  0
 13  5  2  0
 12  8  1  0
  1 23  1  0
  1 24  1  0
  6 25  1  0
  7 26  1  0
  9 27  1  0
 11 28  1  0
 16 29  1  0
 17 30  1  0
M  END
