
     RDKit          3D

 38 44  0  0  0  0  0  0  0  0999 V2000
    1.7189   -2.2340    1.0646 C   0  0  0  0  0  0  0  0  0  0  0  0
    0.3313   -1.6754    0.9097 C   0  0  0  0  0  0  0  0  0  0  0  0
   -0.9966   -2.0382    1.1870 C   0  0  0  0  0  0  0  0  0  0  0  0
   -1.8104   -0.9877    0.7540 C   0  0  0  0  0  0  0  0  0  0  0  0
   -0.9821   -0.0074    0.2237 N   0  0  0  0  0  0  0  0  0  0  0  0
    0.2922   -0.4359    0.3254 C   0  0  0  0  0  0  0  0  0  0  0  0
    1.6006   -0.0038    0.0173 C   0  0  0  0  0  0  0  0  0  0  0  0
    2.4827   -1.0483    0.4426 C   0  0  0  0  0  0  0  0  0  0  0  0
    3.8592   -0.8690    0.2492 C   0  0  0  0  0  0  0  0  0  0  0  0
    4.8738   -1.7271    0.5758 O   0  0  0  0  0  0  0  0  0  0  0  0
    6.0433   -1.1222    0.1971 C   0  0  0  0  0  0  0  0  0  0  0  0
    5.8178    0.1179   -0.3727 C   0  0  0  0  0  0  0  0  0  0  0  0
    4.4358    0.2515   -0.3272 C   0  0  0  0  0  0  0  0  0  0  0  0
    3.5646    1.2960   -0.7534 C   0  0  0  0  0  0  0  0  0  0  0  0
    3.7924    2.4981   -1.3410 C   0  0  0  0  0  0  0  0  0  0  0  0
    2.5681    3.0993   -1.5293 O   0  0  0  0  0  0  0  0  0  0  0  0
    1.5992    2.2451   -1.0482 C   0  0  0  0  0  0  0  0  0  0  0  0
    2.1835    1.1070   -0.5550 C   0  0  0  0  0  0  0  0  0  0  0  0
   -3.2401   -0.8473    0.8013 C   0  0  0  0  0  0  0  0  0  0  0  0
   -4.2707   -2.0877    1.4765 S   0  0  0  0  0  0  0  0  0  0  0  0
   -5.7346   -1.2126    1.1762 C   0  0  0  0  0  0  0  0  0  0  0  0
   -5.4026   -0.0455    0.5920 C   0  0  0  0  0  0  0  0  0  0  0  0
   -6.2650    0.9336    0.1936 N   0  0  0  0  0  0  0  0  0  0  0  0
   -5.3825    1.8752   -0.3273 C   0  0  0  0  0  0  0  0  0  0  0  0
   -4.0431    1.4411   -0.2277 C   0  0  0  0  0  0  0  0  0  0  0  0
   -4.0537    0.1559    0.3874 C   0  0  0  0  0  0  0  0  0  0  0  0
    1.9933   -2.3681    2.1135 H   0  0  0  0  0  0  0  0  0  0  0  0
    1.8639   -3.1433    0.4768 H   0  0  0  0  0  0  0  0  0  0  0  0
   -1.3364   -2.9560    1.6489 H   0  0  0  0  0  0  0  0  0  0  0  0
   -1.2905    0.8699   -0.1670 H   0  0  0  0  0  0  0  0  0  0  0  0
    6.9377   -1.6958    0.3985 H   0  0  0  0  0  0  0  0  0  0  0  0
    6.5657    0.7973   -0.7535 H   0  0  0  0  0  0  0  0  0  0  0  0
    4.6534    3.0584   -1.6744 H   0  0  0  0  0  0  0  0  0  0  0  0
    0.5856    2.6067   -1.1396 H   0  0  0  0  0  0  0  0  0  0  0  0
   -6.7083   -1.6002    1.4396 H   0  0  0  0  0  0  0  0  0  0  0  0
   -7.2749    0.9442    0.2697 H   0  0  0  0  0  0  0  0  0  0  0  0
   -5.7798    2.7960   -0.7354 H   0  0  0  0  0  0  0  0  0  0  0  0
   -3.1918    2.0121   -0.5692 H   0  0  0  0  0  0  0  0  0  0  0  0
  1  2  1  0
  2  3  1  0
  3  4  2  0
  4  5  1  0
  5  6  1  0
  6  7  1  0
  7  8  2  0
  8  9  1  0
  9 10  1  0
 10 11  1  0
 11 12  2  0
 12 13  1  0
 13 14  1  0
 14 15  2  0
 15 16  1  0
 16 17  1  0
 17 18  2  0
  4 19  1  0
 19 20  1  0
 20 21  1  0
 21 22  2  0
 22 23  1  0
 23 24  1  0
 24 25  2  0
 25 26  1  0
  8  1  1  0
 13  9  2  0
 18 14  1  0
 26 19  2  0
  6  2  2  0
 18  7  1  0
 26 22  1  0
  1 27  1  0
  1 28  1  0
  3 29  1  0
  5 30  1  0
 11 31  1  0
 12 32  1  0
 15 33  1  0
 17 34  1  0
 21 35  1  0
 23 36  1  0
 24 37  1  0
 25 38  1  0
M  END
