
     RDKit          3D

 38 43  0  0  0  0  0  0  0  0999 V2000
    2.4747    2.0313    0.0444 C   0  0  0  0  0  0  0  0  0  0  0  0
    1.0472    1.5357   -0.1238 C   0  0  0  0  0  0  0  0  0  0  0  0
   -0.2628    2.0000   -0.3022 C   0  0  0  0  0  0  0  0  0  0  0  0
   -1.0825    0.8691   -0.3693 C   0  0  0  0  0  0  0  0  0  0  0  0
   -0.2848   -0.2642   -0.2517 N   0  0  0  0  0  0  0  0  0  0  0  0
    0.9823    0.1574   -0.0989 C   0  0  0  0  0  0  0  0  0  0  0  0
    2.2735   -0.3641    0.0754 C   0  0  0  0  0  0  0  0  0  0  0  0
    2.8699   -1.5617    0.1790 O   0  0  0  0  0  0  0  0  0  0  0  0
    4.2030   -1.2619    0.3391 C   0  0  0  0  0  0  0  0  0  0  0  0
    5.2425   -2.1703    0.4909 C   0  0  0  0  0  0  0  0  0  0  0  0
    6.5084   -1.6024    0.6363 C   0  0  0  0  0  0  0  0  0  0  0  0
    6.6501   -0.2156    0.6215 C   0  0  0  0  0  0  0  0  0  0  0  0
    5.6491    0.6849    0.4748 N   0  0  0  0  0  0  0  0  0  0  0  0
    4.4229    0.1248    0.3340 C   0  0  0  0  0  0  0  0  0  0  0  0
    3.1641    0.6938    0.1625 C   0  0  0  0  0  0  0  0  0  0  0  0
   -2.4842    0.6839   -0.5524 C   0  0  0  0  0  0  0  0  0  0  0  0
   -3.0469    1.2852   -1.6293 C   0  0  0  0  0  0  0  0  0  0  0  0
   -4.4616    1.1557   -1.9735 C   0  0  0  0  0  0  0  0  0  0  0  0
   -5.3123    0.4195   -1.2361 C   0  0  0  0  0  0  0  0  0  0  0  0
   -4.8081   -0.2494   -0.0553 C   0  0  0  0  0  0  0  0  0  0  0  0
   -5.5503   -0.9916    0.7870 C   0  0  0  0  0  0  0  0  0  0  0  0
   -4.5071   -1.6256    2.2031 Si  0  0  0  0  0  4  0  0  0  0  0  0
   -3.0353   -0.7490    1.4497 C   0  0  0  0  0  0  0  0  0  0  0  0
   -3.3741   -0.1157    0.3069 C   0  0  0  0  0  0  0  0  0  0  0  0
    2.8113    2.5834   -0.8367 H   0  0  0  0  0  0  0  0  0  0  0  0
    2.5857    2.6253    0.9550 H   0  0  0  0  0  0  0  0  0  0  0  0
   -0.6006    3.0260   -0.3683 H   0  0  0  0  0  0  0  0  0  0  0  0
   -0.6097   -1.2218   -0.2823 H   0  0  0  0  0  0  0  0  0  0  0  0
    5.0731   -3.2387    0.4946 H   0  0  0  0  0  0  0  0  0  0  0  0
    7.3815   -2.2356    0.7605 H   0  0  0  0  0  0  0  0  0  0  0  0
    7.6372    0.2287    0.7348 H   0  0  0  0  0  0  0  0  0  0  0  0
   -2.4500    1.8841   -2.3131 H   0  0  0  0  0  0  0  0  0  0  0  0
   -4.8076    1.6751   -2.8618 H   0  0  0  0  0  0  0  0  0  0  0  0
   -6.3593    0.3282   -1.5013 H   0  0  0  0  0  0  0  0  0  0  0  0
   -6.6042   -1.2077    0.7175 H   0  0  0  0  0  0  0  0  0  0  0  0
   -4.3544   -3.1003    2.1747 H   0  0  0  0  0  0  0  0  0  0  0  0
   -4.9088   -1.0473    3.5078 H   0  0  0  0  0  0  0  0  0  0  0  0
   -2.0716   -0.7691    1.9324 H   0  0  0  0  0  0  0  0  0  0  0  0
  1  2  1  0
  2  3  1  0
  3  4  2  0
  4  5  1  0
  5  6  1  0
  6  7  1  0
  7  8  1  0
  8  9  1  0
  9 10  2  0
 10 11  1  0
 11 12  2  0
 12 13  1  0
 13 14  2  0
 14 15  1  0
  4 16  1  0
 16 17  2  0
 17 18  1  0
 18 19  2  0
 19 20  1  0
 20 21  2  0
 21 22  1  0
 22 23  1  0
 23 24  2  0
 15  1  1  0
 24 16  1  0
  6  2  2  0
 15  7  2  0
 24 20  1  0
 14  9  1  0
  1 25  1  0
  1 26  1  0
  3 27  1  0
  5 28  1  0
 10 29  1  0
 11 30  1  0
 12 31  1  0
 17 32  1  0
 18 33  1  0
 19 34  1  0
 21 35  1  0
 22 36  1  0
 22 37  1  0
 23 38  1  0
M  END
