
     RDKit          3D

 40 46  0  0  0  0  0  0  0  0999 V2000
    1.1363    1.9022   -0.6710 C   0  0  0  0  0  0  0  0  0  0  0  0
    0.2848    0.7189   -0.1483 C   0  0  0  0  0  0  0  0  0  0  0  0
   -1.1398    0.6853   -0.0845 C   0  0  0  0  0  0  0  0  0  0  0  0
   -1.8762   -0.4412    0.4066 C   0  0  0  0  0  0  0  0  0  0  0  0
   -3.3261   -0.4905    0.4999 C   0  0  0  0  0  0  0  0  0  0  0  0
   -4.0165   -0.7281    1.7149 C   0  0  0  0  0  0  0  0  0  0  0  0
   -5.4266   -0.7754    1.8286 C   0  0  0  0  0  0  0  0  0  0  0  0
   -6.2875   -0.5855    0.7372 C   0  0  0  0  0  0  0  0  0  0  0  0
   -5.6674   -0.3347   -0.5093 C   0  0  0  0  0  0  0  0  0  0  0  0
   -6.3107   -0.1237   -1.6678 N   0  0  0  0  0  0  0  0  0  0  0  0
   -5.1396    0.1126   -2.8188 S   0  0  0  0  0  0  0  0  0  0  0  0
   -3.7665   -0.0315   -1.9016 N   0  0  0  0  0  0  0  0  0  0  0  0
   -4.1606   -0.2820   -0.6395 C   0  0  0  0  0  0  0  0  0  0  0  0
   -1.0195   -1.4926    0.8016 C   0  0  0  0  0  0  0  0  0  0  0  0
   -1.3373   -2.7371    1.2847 C   0  0  0  0  0  0  0  0  0  0  0  0
   -0.1929   -3.4481    1.5361 O   0  0  0  0  0  0  0  0  0  0  0  0
    0.8729   -2.6582    1.1953 C   0  0  0  0  0  0  0  0  0  0  0  0
    0.4120   -1.4574    0.7360 C   0  0  0  0  0  0  0  0  0  0  0  0
    1.1087   -0.3694    0.2709 C   0  0  0  0  0  0  0  0  0  0  0  0
    2.4508    0.0106    0.0647 C   0  0  0  0  0  0  0  0  0  0  0  0
    3.7005   -0.5026    0.2277 N   0  0  0  0  0  0  0  0  0  0  0  0
    4.5611    0.4721   -0.2061 C   0  0  0  0  0  0  0  0  0  0  0  0
    5.9722    0.4308   -0.2438 C   0  0  0  0  0  0  0  0  0  0  0  0
    6.4607    1.5896   -0.7420 C   0  0  0  0  0  0  0  0  0  0  0  0
    5.0406    2.8516   -1.2093 Si  0  0  0  0  0  4  0  0  0  0  0  0
    3.8294    1.5680   -0.6309 C   0  0  0  0  0  0  0  0  0  0  0  0
    2.4899    1.2877   -0.4649 C   0  0  0  0  0  0  0  0  0  0  0  0
    0.9298    2.0925   -1.7269 H   0  0  0  0  0  0  0  0  0  0  0  0
    0.9908    2.7894   -0.0501 H   0  0  0  0  0  0  0  0  0  0  0  0
   -1.6899    1.5614   -0.4287 H   0  0  0  0  0  0  0  0  0  0  0  0
   -3.4330   -0.8739    2.6266 H   0  0  0  0  0  0  0  0  0  0  0  0
   -5.8631   -0.9643    2.8101 H   0  0  0  0  0  0  0  0  0  0  0  0
   -7.3656   -0.6233    0.8362 H   0  0  0  0  0  0  0  0  0  0  0  0
   -2.2582   -3.2606    1.4984 H   0  0  0  0  0  0  0  0  0  0  0  0
    1.8462   -3.1038    1.3363 H   0  0  0  0  0  0  0  0  0  0  0  0
    3.9456   -1.4133    0.5913 H   0  0  0  0  0  0  0  0  0  0  0  0
    6.5732   -0.4086    0.0796 H   0  0  0  0  0  0  0  0  0  0  0  0
    7.4897    1.8690   -0.8979 H   0  0  0  0  0  0  0  0  0  0  0  0
    5.0461    3.1025   -2.6730 H   0  0  0  0  0  0  0  0  0  0  0  0
    5.1354    4.0614   -0.3531 H   0  0  0  0  0  0  0  0  0  0  0  0
  1  2  1  0
  2  3  1  0
  3  4  2  0
  4  5  1  0
  5  6  2  0
  6  7  1  0
  7  8  2  0
  8  9  1  0
  9 10  2  0
 10 11  1  0
 11 12  1  0
 12 13  2  0
  4 14  1  0
 14 15  2  0
 15 16  1  0
 16 17  1  0
 17 18  2  0
 18 19  1  0
 19 20  1  0
 20 21  1  0
 21 22  1  0
 22 23  1  0
 23 24  2  0
 24 25  1  0
 25 26  1  0
 26 27  1  0
 27  1  1  0
 19  2  2  0
 27 20  2  0
 13  5  1  0
 18 14  1  0
 26 22  2  0
 13  9  1  0
  1 28  1  0
  1 29  1  0
  3 30  1  0
  6 31  1  0
  7 32  1  0
  8 33  1  0
 15 34  1  0
 17 35  1  0
 21 36  1  0
 23 37  1  0
 24 38  1  0
 25 39  1  0
 25 40  1  0
M  END
