
     RDKit          3D

 48 55  0  0  0  0  0  0  0  0999 V2000
   -0.6742    4.3297   -0.6151 Si  0  0  0  0  0  4  0  0  0  0  0  0
    0.8889    3.3326   -0.4322 C   0  0  0  0  0  0  0  0  0  0  0  0
    0.6194    2.0221   -0.2574 C   0  0  0  0  0  0  0  0  0  0  0  0
    1.6197    0.9665   -0.2490 C   0  0  0  0  0  0  0  0  0  0  0  0
    3.0688    1.1281   -0.0654 C   0  0  0  0  0  0  0  0  0  0  0  0
    3.7802   -0.0129   -0.0087 C   0  0  0  0  0  0  0  0  0  0  0  0
    2.6612   -1.4900   -0.2027 Si  0  0  0  0  0  4  0  0  0  0  0  0
    1.1992   -0.3209   -0.3965 C   0  0  0  0  0  0  0  0  0  0  0  0
   -0.2294   -0.6848   -0.4496 C   0  0  0  0  0  0  0  0  0  0  0  0
   -0.7871   -1.9222   -0.8055 C   0  0  0  0  0  0  0  0  0  0  0  0
   -0.1754   -2.9928   -1.4178 C   0  0  0  0  0  0  0  0  0  0  0  0
   -1.1188   -3.9789   -1.6013 N   0  0  0  0  0  0  0  0  0  0  0  0
   -2.3410   -3.5480   -1.1494 C   0  0  0  0  0  0  0  0  0  0  0  0
   -2.1771   -2.2673   -0.6724 C   0  0  0  0  0  0  0  0  0  0  0  0
   -3.1894   -1.4524   -0.1140 C   0  0  0  0  0  0  0  0  0  0  0  0
   -4.5650   -1.8876    0.0561 C   0  0  0  0  0  0  0  0  0  0  0  0
   -5.5564   -1.1178    0.6803 C   0  0  0  0  0  0  0  0  0  0  0  0
   -5.0328    0.0707    1.1725 C   0  0  0  0  0  0  0  0  0  0  0  0
   -5.8067    0.9206    1.9256 C   0  0  0  0  0  0  0  0  0  0  0  0
   -4.8817    2.2285    2.5318 S   0  0  0  0  0  0  0  0  0  0  0  0
   -3.4481    1.6409    1.7905 C   0  0  0  0  0  0  0  0  0  0  0  0
   -3.6701    0.5342    0.9986 C   0  0  0  0  0  0  0  0  0  0  0  0
   -2.6441   -0.1548    0.2609 C   0  0  0  0  0  0  0  0  0  0  0  0
   -1.2584    0.2527   -0.0682 C   0  0  0  0  0  0  0  0  0  0  0  0
   -0.8251    1.6845   -0.1891 C   0  0  0  0  0  0  0  0  0  0  0  0
   -1.6298    2.7365   -0.4570 C   0  0  0  0  0  0  0  0  0  0  0  0
    5.1784   -0.1176    0.1728 C   0  0  0  0  0  0  0  0  0  0  0  0
    6.1393    0.8773    0.3426 C   0  0  0  0  0  0  0  0  0  0  0  0
    7.4031    0.2568    0.4849 C   0  0  0  0  0  0  0  0  0  0  0  0
    7.1673   -1.0892    0.3968 C   0  0  0  0  0  0  0  0  0  0  0  0
    5.8477   -1.3256    0.2108 O   0  0  0  0  0  0  0  0  0  0  0  0
   -0.8005    4.9444   -1.9585 H   0  0  0  0  0  0  0  0  0  0  0  0
   -0.8980    5.2422    0.5320 H   0  0  0  0  0  0  0  0  0  0  0  0
    1.8543    3.7958   -0.5525 H   0  0  0  0  0  0  0  0  0  0  0  0
    3.4959    2.1173    0.0334 H   0  0  0  0  0  0  0  0  0  0  0  0
    2.5558   -2.3180    1.0281 H   0  0  0  0  0  0  0  0  0  0  0  0
    2.9457   -2.2557   -1.4470 H   0  0  0  0  0  0  0  0  0  0  0  0
    0.8247   -3.1667   -1.7825 H   0  0  0  0  0  0  0  0  0  0  0  0
   -0.9408   -4.8784   -2.0299 H   0  0  0  0  0  0  0  0  0  0  0  0
   -3.2028   -4.1958   -1.2255 H   0  0  0  0  0  0  0  0  0  0  0  0
   -4.8542   -2.8736   -0.3043 H   0  0  0  0  0  0  0  0  0  0  0  0
   -6.5728   -1.4634    0.8120 H   0  0  0  0  0  0  0  0  0  0  0  0
   -6.8518    0.8326    2.1888 H   0  0  0  0  0  0  0  0  0  0  0  0
   -2.5227    2.1593    1.9927 H   0  0  0  0  0  0  0  0  0  0  0  0
   -2.6984    2.7339   -0.5988 H   0  0  0  0  0  0  0  0  0  0  0  0
    5.9438    1.9404    0.3619 H   0  0  0  0  0  0  0  0  0  0  0  0
    8.3616    0.7330    0.6331 H   0  0  0  0  0  0  0  0  0  0  0  0
    7.7975   -1.9661    0.4442 H   0  0  0  0  0  0  0  0  0  0  0  0
  1  2  1  0
  2  3  2  0
  3  4  1  0
  4  5  1  0
  5  6  2  0
  6  7  1  0
  7  8  1  0
  8  9  1  0
  9 10  1  0
 10 11  2  0
 11 12  1  0
 12 13  1  0
 13 14  2  0
 14 15  1  0
 15 16  1  0
 16 17  2  0
 17 18  1  0
 18 19  2  0
 19 20  1  0
 20 21  1  0
 21 22  2  0
 22 23  1  0
 23 24  1  0
 24 25  1  0
 25 26  2  0
  6 27  1  0
 27 28  2  0
 28 29  1  0
 29 30  2  0
 30 31  1  0
 26  1  1  0
 31 27  1  0
 25  3  1  0
  8  4  2  0
 24  9  2  0
 14 10  1  0
 23 15  2  0
 22 18  1  0
  1 32  1  0
  1 33  1  0
  2 34  1  0
  5 35  1  0
  7 36  1  0
  7 37  1  0
 11 38  1  0
 12 39  1  0
 13 40  1  0
 16 41  1  0
 17 42  1  0
 19 43  1  0
 21 44  1  0
 26 45  1  0
 28 46  1  0
 29 47  1  0
 30 48  1  0
M  END
