
     RDKit          3D

 36 41  0  0  0  0  0  0  0  0999 V2000
   -0.3528   -1.6311    0.0806 C   0  0  0  0  0  0  0  0  0  0  0  0
    1.0570   -1.0697    0.0585 C   0  0  0  0  0  0  0  0  0  0  0  0
    2.4001   -1.4558    0.1267 C   0  0  0  0  0  0  0  0  0  0  0  0
    3.1493   -0.2780    0.0297 C   0  0  0  0  0  0  0  0  0  0  0  0
    2.2997    0.8130   -0.0956 O   0  0  0  0  0  0  0  0  0  0  0  0
    1.0629    0.3055   -0.0747 C   0  0  0  0  0  0  0  0  0  0  0  0
   -0.2647    0.7568   -0.1489 C   0  0  0  0  0  0  0  0  0  0  0  0
   -0.9502    1.9159   -0.2770 N   0  0  0  0  0  0  0  0  0  0  0  0
   -2.3109    1.6066   -0.2781 C   0  0  0  0  0  0  0  0  0  0  0  0
   -3.4625    2.4341   -0.3847 C   0  0  0  0  0  0  0  0  0  0  0  0
   -4.7638    1.8768   -0.3605 C   0  0  0  0  0  0  0  0  0  0  0  0
   -4.7565    0.4926   -0.2262 C   0  0  0  0  0  0  0  0  0  0  0  0
   -5.8687   -0.3144   -0.1735 C   0  0  0  0  0  0  0  0  0  0  0  0
   -5.4308   -1.6242   -0.0364 N   0  0  0  0  0  0  0  0  0  0  0  0
   -4.0494   -1.6717   -0.0002 C   0  0  0  0  0  0  0  0  0  0  0  0
   -3.6604   -0.3727   -0.1172 C   0  0  0  0  0  0  0  0  0  0  0  0
   -2.3732    0.2136   -0.1445 C   0  0  0  0  0  0  0  0  0  0  0  0
   -1.1127   -0.3344   -0.0625 C   0  0  0  0  0  0  0  0  0  0  0  0
    4.5706   -0.1234    0.0472 C   0  0  0  0  0  0  0  0  0  0  0  0
    5.5858   -1.0524    0.1606 C   0  0  0  0  0  0  0  0  0  0  0  0
    6.8173   -0.3509    0.1208 C   0  0  0  0  0  0  0  0  0  0  0  0
    6.5226    0.9869   -0.0158 C   0  0  0  0  0  0  0  0  0  0  0  0
    5.1587    1.1135   -0.0593 N   0  0  0  0  0  0  0  0  0  0  0  0
   -0.5303   -2.2989   -0.7662 H   0  0  0  0  0  0  0  0  0  0  0  0
   -0.5715   -2.1247    1.0309 H   0  0  0  0  0  0  0  0  0  0  0  0
    2.8027   -2.4527    0.2326 H   0  0  0  0  0  0  0  0  0  0  0  0
   -0.5571    2.8429   -0.3578 H   0  0  0  0  0  0  0  0  0  0  0  0
   -3.3486    3.5107   -0.4866 H   0  0  0  0  0  0  0  0  0  0  0  0
   -5.6566    2.4820   -0.4397 H   0  0  0  0  0  0  0  0  0  0  0  0
   -6.9269   -0.0967   -0.2188 H   0  0  0  0  0  0  0  0  0  0  0  0
   -6.0388   -2.4299    0.0277 H   0  0  0  0  0  0  0  0  0  0  0  0
   -3.5169   -2.6058    0.1026 H   0  0  0  0  0  0  0  0  0  0  0  0
    5.4608   -2.1224    0.2615 H   0  0  0  0  0  0  0  0  0  0  0  0
    7.8100   -0.7772    0.1849 H   0  0  0  0  0  0  0  0  0  0  0  0
    7.1616    1.8568   -0.0856 H   0  0  0  0  0  0  0  0  0  0  0  0
    4.6441    1.9794   -0.1551 H   0  0  0  0  0  0  0  0  0  0  0  0
  1  2  1  0
  2  3  1  0
  3  4  2  0
  4  5  1  0
  5  6  1  0
  6  7  1  0
  7  8  1  0
  8  9  1  0
  9 10  1  0
 10 11  2  0
 11 12  1  0
 12 13  2  0
 13 14  1  0
 14 15  1  0
 15 16  2  0
 16 17  1  0
 17 18  1  0
  4 19  1  0
 19 20  2  0
 20 21  1  0
 21 22  2  0
 22 23  1  0
 18  1  1  0
 23 19  1  0
  6  2  2  0
 18  7  2  0
 17  9  2  0
 16 12  1  0
  1 24  1  0
  1 25  1  0
  3 26  1  0
  8 27  1  0
 10 28  1  0
 11 29  1  0
 13 30  1  0
 14 31  1  0
 15 32  1  0
 20 33  1  0
 21 34  1  0
 22 35  1  0
 23 36  1  0
M  END
