
     RDKit          3D

 36 42  0  0  0  0  0  0  0  0999 V2000
   -1.1235    1.6284    0.1910 C   0  0  0  0  0  0  0  0  0  0  0  0
    0.1175    0.7868   -0.1165 C   0  0  0  0  0  0  0  0  0  0  0  0
    1.5124    0.9953   -0.1696 C   0  0  0  0  0  0  0  0  0  0  0  0
    2.1880   -0.1755   -0.5151 C   0  0  0  0  0  0  0  0  0  0  0  0
    1.0831   -1.5039   -0.7565 S   0  0  0  0  0  0  0  0  0  0  0  0
   -0.2080   -0.5234   -0.4159 C   0  0  0  0  0  0  0  0  0  0  0  0
   -1.6081   -0.6537   -0.3386 C   0  0  0  0  0  0  0  0  0  0  0  0
   -2.5580   -1.6052   -0.4969 N   0  0  0  0  0  0  0  0  0  0  0  0
   -3.7991   -1.0132   -0.2539 C   0  0  0  0  0  0  0  0  0  0  0  0
   -5.1002   -1.5480   -0.2829 C   0  0  0  0  0  0  0  0  0  0  0  0
   -6.1995   -0.7151    0.0091 C   0  0  0  0  0  0  0  0  0  0  0  0
   -5.9328    0.6405    0.3221 C   0  0  0  0  0  0  0  0  0  0  0  0
   -6.8485    1.5818    0.6260 N   0  0  0  0  0  0  0  0  0  0  0  0
   -5.9994    3.0021    0.9097 S   0  0  0  0  0  0  0  0  0  0  0  0
   -4.4219    2.4843    0.6568 N   0  0  0  0  0  0  0  0  0  0  0  0
   -4.5963    1.2069    0.3563 C   0  0  0  0  0  0  0  0  0  0  0  0
   -3.5250    0.3200    0.0532 C   0  0  0  0  0  0  0  0  0  0  0  0
   -2.1667    0.5612    0.0066 C   0  0  0  0  0  0  0  0  0  0  0  0
    3.6259   -0.3983   -0.6735 C   0  0  0  0  0  0  0  0  0  0  0  0
    4.1893   -1.1332   -1.7441 C   0  0  0  0  0  0  0  0  0  0  0  0
    5.5793   -1.3454   -1.9044 C   0  0  0  0  0  0  0  0  0  0  0  0
    6.5374   -0.8416   -1.0113 C   0  0  0  0  0  0  0  0  0  0  0  0
    6.0413   -0.0920    0.0816 C   0  0  0  0  0  0  0  0  0  0  0  0
    6.7932    0.4721    1.0391 N   0  0  0  0  0  0  0  0  0  0  0  0
    5.7425    1.2220    2.0803 S   0  0  0  0  0  0  0  0  0  0  0  0
    4.2901    0.8748    1.3621 N   0  0  0  0  0  0  0  0  0  0  0  0
    4.5560    0.1429    0.2638 C   0  0  0  0  0  0  0  0  0  0  0  0
   -1.2384    2.4405   -0.5314 H   0  0  0  0  0  0  0  0  0  0  0  0
   -1.1011    2.0043    1.2171 H   0  0  0  0  0  0  0  0  0  0  0  0
    2.0084    1.9371    0.0321 H   0  0  0  0  0  0  0  0  0  0  0  0
   -2.4034   -2.5731   -0.7446 H   0  0  0  0  0  0  0  0  0  0  0  0
   -5.2660   -2.5945   -0.5272 H   0  0  0  0  0  0  0  0  0  0  0  0
   -7.2158   -1.0925   -0.0035 H   0  0  0  0  0  0  0  0  0  0  0  0
    3.5273   -1.5564   -2.5012 H   0  0  0  0  0  0  0  0  0  0  0  0
    5.9208   -1.9251   -2.7627 H   0  0  0  0  0  0  0  0  0  0  0  0
    7.5991   -1.0113   -1.1454 H   0  0  0  0  0  0  0  0  0  0  0  0
  1  2  1  0
  2  3  1  0
  3  4  2  0
  4  5  1  0
  5  6  1  0
  6  7  1  0
  7  8  1  0
  8  9  1  0
  9 10  1  0
 10 11  2  0
 11 12  1  0
 12 13  2  0
 13 14  1  0
 14 15  1  0
 15 16  2  0
 16 17  1  0
 17 18  1  0
  4 19  1  0
 19 20  2  0
 20 21  1  0
 21 22  2  0
 22 23  1  0
 23 24  2  0
 24 25  1  0
 25 26  1  0
 26 27  2  0
 18  1  1  0
 27 19  1  0
  6  2  2  0
 18  7  2  0
 27 23  1  0
 17  9  2  0
 16 12  1  0
  1 28  1  0
  1 29  1  0
  3 30  1  0
  8 31  1  0
 10 32  1  0
 11 33  1  0
 20 34  1  0
 21 35  1  0
 22 36  1  0
M  END
