
     RDKit          3D

 41 46  0  0  0  0  0  0  0  0999 V2000
   -1.4336    1.3184   -2.2683 C   0  0  0  0  0  0  0  0  0  0  0  0
   -2.7520    1.0504   -1.5192 C   0  0  0  0  0  0  0  0  0  0  0  0
   -4.0152    1.4045   -1.9565 C   0  0  0  0  0  0  0  0  0  0  0  0
   -5.1068    1.0817   -1.1456 C   0  0  0  0  0  0  0  0  0  0  0  0
   -4.9499    0.4118    0.0922 C   0  0  0  0  0  0  0  0  0  0  0  0
   -6.0712    0.1043    0.8794 C   0  0  0  0  0  0  0  0  0  0  0  0
   -5.9349   -0.5555    2.1014 C   0  0  0  0  0  0  0  0  0  0  0  0
   -4.6731   -0.9194    2.5571 C   0  0  0  0  0  0  0  0  0  0  0  0
   -3.5439   -0.6241    1.7916 C   0  0  0  0  0  0  0  0  0  0  0  0
   -3.6591    0.0427    0.5525 C   0  0  0  0  0  0  0  0  0  0  0  0
   -2.5813    0.3754   -0.2745 C   0  0  0  0  0  0  0  0  0  0  0  0
   -1.1656    0.1849   -0.1743 C   0  0  0  0  0  0  0  0  0  0  0  0
   -0.2589   -0.3510    0.6753 N   0  0  0  0  0  0  0  0  0  0  0  0
    1.0022   -0.1823    0.1226 C   0  0  0  0  0  0  0  0  0  0  0  0
    2.2677   -0.5492    0.5877 C   0  0  0  0  0  0  0  0  0  0  0  0
    3.3646   -0.2220   -0.2233 C   0  0  0  0  0  0  0  0  0  0  0  0
    3.0998    0.4395   -1.4289 C   0  0  0  0  0  0  0  0  0  0  0  0
    1.8864    0.8087   -1.9055 N   0  0  0  0  0  0  0  0  0  0  0  0
    0.8491    0.4818   -1.1025 C   0  0  0  0  0  0  0  0  0  0  0  0
   -0.5212    0.7021   -1.2701 C   0  0  0  0  0  0  0  0  0  0  0  0
    4.7356   -0.5606    0.1778 C   0  0  0  0  0  0  0  0  0  0  0  0
    5.7579    0.3971    0.2054 C   0  0  0  0  0  0  0  0  0  0  0  0
    7.0478    0.0394    0.5951 C   0  0  0  0  0  0  0  0  0  0  0  0
    7.2855   -1.2766    0.9510 C   0  0  0  0  0  0  0  0  0  0  0  0
    6.3370   -2.2353    0.9414 N   0  0  0  0  0  0  0  0  0  0  0  0
    5.0942   -1.8560    0.5554 C   0  0  0  0  0  0  0  0  0  0  0  0
   -1.4142    0.7927   -3.2261 H   0  0  0  0  0  0  0  0  0  0  0  0
   -1.2590    2.3912   -2.3810 H   0  0  0  0  0  0  0  0  0  0  0  0
   -4.1606    1.9182   -2.9012 H   0  0  0  0  0  0  0  0  0  0  0  0
   -6.1030    1.3591   -1.4871 H   0  0  0  0  0  0  0  0  0  0  0  0
   -7.0691    0.3788    0.5436 H   0  0  0  0  0  0  0  0  0  0  0  0
   -6.8159   -0.7843    2.6955 H   0  0  0  0  0  0  0  0  0  0  0  0
   -4.5664   -1.4334    3.5088 H   0  0  0  0  0  0  0  0  0  0  0  0
   -2.5747   -0.9212    2.1745 H   0  0  0  0  0  0  0  0  0  0  0  0
   -0.4480   -0.7989    1.5599 H   0  0  0  0  0  0  0  0  0  0  0  0
    2.3907   -1.0511    1.5419 H   0  0  0  0  0  0  0  0  0  0  0  0
    3.9185    0.7014   -2.0978 H   0  0  0  0  0  0  0  0  0  0  0  0
    5.5551    1.4318   -0.0626 H   0  0  0  0  0  0  0  0  0  0  0  0
    7.8462    0.7726    0.6237 H   0  0  0  0  0  0  0  0  0  0  0  0
    8.2732   -1.6038    1.2628 H   0  0  0  0  0  0  0  0  0  0  0  0
    4.3658   -2.6638    0.5500 H   0  0  0  0  0  0  0  0  0  0  0  0
  1  2  1  0
  2  3  2  0
  3  4  1  0
  4  5  2  0
  5  6  1  0
  6  7  2  0
  7  8  1  0
  8  9  2  0
  9 10  1  0
 10 11  2  0
 11 12  1  0
 12 13  1  0
 13 14  1  0
 14 15  2  0
 15 16  1  0
 16 17  2  0
 17 18  1  0
 18 19  2  0
 19 20  1  0
 16 21  1  0
 21 22  2  0
 22 23  1  0
 23 24  2  0
 24 25  1  0
 25 26  2  0
 20  1  1  0
 26 21  1  0
 11  2  1  0
 20 12  2  0
 10  5  1  0
 19 14  1  0
  1 27  1  0
  1 28  1  0
  3 29  1  0
  4 30  1  0
  6 31  1  0
  7 32  1  0
  8 33  1  0
  9 34  1  0
 13 35  1  0
 15 36  1  0
 17 37  1  0
 22 38  1  0
 23 39  1  0
 24 40  1  0
 26 41  1  0
M  END
