
     RDKit          3D

 41 46  0  0  0  0  0  0  0  0999 V2000
    1.8898   -3.7790   -1.8514 Si  0  0  0  0  0  4  0  0  0  0  0  0
    0.3963   -2.7906   -1.3832 C   0  0  0  0  0  0  0  0  0  0  0  0
    0.7301   -1.6284   -0.7839 C   0  0  0  0  0  0  0  0  0  0  0  0
   -0.2402   -0.6539   -0.3128 C   0  0  0  0  0  0  0  0  0  0  0  0
   -1.7052   -0.7540   -0.3967 C   0  0  0  0  0  0  0  0  0  0  0  0
   -2.4029    0.2831    0.1066 C   0  0  0  0  0  0  0  0  0  0  0  0
   -1.2401    1.5720    0.7910 Si  0  0  0  0  0  4  0  0  0  0  0  0
    0.2178    0.4829    0.2738 C   0  0  0  0  0  0  0  0  0  0  0  0
    1.6560    0.8018    0.4706 C   0  0  0  0  0  0  0  0  0  0  0  0
    2.0431    1.9947    1.0852 C   0  0  0  0  0  0  0  0  0  0  0  0
    3.3853    2.3070    1.2776 C   0  0  0  0  0  0  0  0  0  0  0  0
    4.4002    1.4255    0.8572 C   0  0  0  0  0  0  0  0  0  0  0  0
    5.8231    1.5903    0.9776 C   0  0  0  0  0  0  0  0  0  0  0  0
    6.5257    0.5354    0.4619 C   0  0  0  0  0  0  0  0  0  0  0  0
    5.4923   -0.6499   -0.1648 S   0  0  0  0  0  0  0  0  0  0  0  0
    4.0374    0.2157    0.2347 C   0  0  0  0  0  0  0  0  0  0  0  0
    2.6604   -0.1233    0.0268 C   0  0  0  0  0  0  0  0  0  0  0  0
    2.1972   -1.3918   -0.6290 C   0  0  0  0  0  0  0  0  0  0  0  0
    2.9324   -2.4092   -1.1303 C   0  0  0  0  0  0  0  0  0  0  0  0
   -3.8541    0.4102    0.1504 C   0  0  0  0  0  0  0  0  0  0  0  0
   -4.6159   -0.5177    0.8730 C   0  0  0  0  0  0  0  0  0  0  0  0
   -6.0076   -0.4103    0.9204 C   0  0  0  0  0  0  0  0  0  0  0  0
   -6.6510    0.6219    0.2407 C   0  0  0  0  0  0  0  0  0  0  0  0
   -5.9043    1.5449   -0.4892 C   0  0  0  0  0  0  0  0  0  0  0  0
   -4.5121    1.4388   -0.5364 C   0  0  0  0  0  0  0  0  0  0  0  0
    2.0559   -3.9078   -3.3194 H   0  0  0  0  0  0  0  0  0  0  0  0
    2.0035   -5.0438   -1.0856 H   0  0  0  0  0  0  0  0  0  0  0  0
   -0.5931   -3.1604   -1.5961 H   0  0  0  0  0  0  0  0  0  0  0  0
   -2.1777   -1.6187   -0.8456 H   0  0  0  0  0  0  0  0  0  0  0  0
   -1.2763    2.8510    0.0339 H   0  0  0  0  0  0  0  0  0  0  0  0
   -1.3227    1.7239    2.2668 H   0  0  0  0  0  0  0  0  0  0  0  0
    1.3207    2.7248    1.4374 H   0  0  0  0  0  0  0  0  0  0  0  0
    3.6505    3.2453    1.7601 H   0  0  0  0  0  0  0  0  0  0  0  0
    6.2983    2.4536    1.4273 H   0  0  0  0  0  0  0  0  0  0  0  0
    7.5988    0.4078    0.4254 H   0  0  0  0  0  0  0  0  0  0  0  0
    3.9957   -2.5389   -1.1727 H   0  0  0  0  0  0  0  0  0  0  0  0
   -4.1289   -1.3287    1.4102 H   0  0  0  0  0  0  0  0  0  0  0  0
   -6.5880   -1.1335    1.4873 H   0  0  0  0  0  0  0  0  0  0  0  0
   -7.7342    0.7044    0.2759 H   0  0  0  0  0  0  0  0  0  0  0  0
   -6.4055    2.3454   -1.0271 H   0  0  0  0  0  0  0  0  0  0  0  0
   -3.9505    2.1597   -1.1262 H   0  0  0  0  0  0  0  0  0  0  0  0
  1  2  1  0
  2  3  2  0
  3  4  1  0
  4  5  1  0
  5  6  2  0
  6  7  1  0
  7  8  1  0
  8  9  1  0
  9 10  2  0
 10 11  1  0
 11 12  2  0
 12 13  1  0
 13 14  2  0
 14 15  1  0
 15 16  1  0
 16 17  2  0
 17 18  1  0
 18 19  2  0
  6 20  1  0
 20 21  2  0
 21 22  1  0
 22 23  2  0
 23 24  1  0
 24 25  2  0
 19  1  1  0
 25 20  1  0
 18  3  1  0
  8  4  2  0
 17  9  1  0
 16 12  1  0
  1 26  1  0
  1 27  1  0
  2 28  1  0
  5 29  1  0
  7 30  1  0
  7 31  1  0
 10 32  1  0
 11 33  1  0
 13 34  1  0
 14 35  1  0
 19 36  1  0
 21 37  1  0
 22 38  1  0
 23 39  1  0
 24 40  1  0
 25 41  1  0
M  END
