
     RDKit          3D

 39 44  0  0  0  0  0  0  0  0999 V2000
   -2.1539    3.9637    0.8880 C   0  0  0  0  0  0  0  0  0  0  0  0
   -1.0149    3.2611    0.5067 C   0  0  0  0  0  0  0  0  0  0  0  0
   -1.0511    1.8711    0.2699 C   0  0  0  0  0  0  0  0  0  0  0  0
    0.1730    1.1448   -0.0644 C   0  0  0  0  0  0  0  0  0  0  0  0
    0.7510    0.2536    0.8404 C   0  0  0  0  0  0  0  0  0  0  0  0
    1.9239   -0.3684    0.4155 C   0  0  0  0  0  0  0  0  0  0  0  0
    2.7263   -1.2893    1.0455 N   0  0  0  0  0  0  0  0  0  0  0  0
    3.7895   -1.6356    0.2458 C   0  0  0  0  0  0  0  0  0  0  0  0
    4.8399   -2.5232    0.4690 C   0  0  0  0  0  0  0  0  0  0  0  0
    5.7504   -2.6260   -0.5717 C   0  0  0  0  0  0  0  0  0  0  0  0
    5.6772   -1.9437   -1.7355 N   0  0  0  0  0  0  0  0  0  0  0  0
    4.6453   -1.0853   -1.9288 C   0  0  0  0  0  0  0  0  0  0  0  0
    3.6699   -0.9084   -0.9390 C   0  0  0  0  0  0  0  0  0  0  0  0
    2.4907   -0.1066   -0.8303 C   0  0  0  0  0  0  0  0  0  0  0  0
    1.8534    0.8155   -1.6679 C   0  0  0  0  0  0  0  0  0  0  0  0
    0.7108    1.4318   -1.2755 N   0  0  0  0  0  0  0  0  0  0  0  0
   -2.2960    1.1928    0.3887 C   0  0  0  0  0  0  0  0  0  0  0  0
   -3.4136    1.9320    0.7909 C   0  0  0  0  0  0  0  0  0  0  0  0
   -3.3729    3.3075    1.0491 C   0  0  0  0  0  0  0  0  0  0  0  0
   -4.4772    1.0642    0.8655 N   0  0  0  0  0  0  0  0  0  0  0  0
   -4.1055   -0.2036    0.4982 C   0  0  0  0  0  0  0  0  0  0  0  0
   -4.8553   -1.3704    0.4178 C   0  0  0  0  0  0  0  0  0  0  0  0
   -4.2613   -2.5089   -0.0010 N   0  0  0  0  0  0  0  0  0  0  0  0
   -2.9571   -2.4738   -0.3465 C   0  0  0  0  0  0  0  0  0  0  0  0
   -2.1531   -1.3452   -0.2859 C   0  0  0  0  0  0  0  0  0  0  0  0
   -2.7511   -0.1582    0.1711 C   0  0  0  0  0  0  0  0  0  0  0  0
   -2.0904    5.0348    1.0651 H   0  0  0  0  0  0  0  0  0  0  0  0
   -0.0726    3.7950    0.3928 H   0  0  0  0  0  0  0  0  0  0  0  0
    0.3082    0.0579    1.8097 H   0  0  0  0  0  0  0  0  0  0  0  0
    2.5573   -1.6617    1.9693 H   0  0  0  0  0  0  0  0  0  0  0  0
    4.9466   -3.0938    1.3821 H   0  0  0  0  0  0  0  0  0  0  0  0
    6.6047   -3.2938   -0.4904 H   0  0  0  0  0  0  0  0  0  0  0  0
    4.6295   -0.5610   -2.8775 H   0  0  0  0  0  0  0  0  0  0  0  0
    2.2268    1.0819   -2.6502 H   0  0  0  0  0  0  0  0  0  0  0  0
   -4.2599    3.8555    1.3518 H   0  0  0  0  0  0  0  0  0  0  0  0
   -5.4124    1.3326    1.1351 H   0  0  0  0  0  0  0  0  0  0  0  0
   -5.9072   -1.4276    0.6688 H   0  0  0  0  0  0  0  0  0  0  0  0
   -2.5510   -3.4196   -0.6956 H   0  0  0  0  0  0  0  0  0  0  0  0
   -1.1180   -1.3920   -0.6001 H   0  0  0  0  0  0  0  0  0  0  0  0
  1  2  2  0
  2  3  1  0
  3  4  1  0
  4  5  2  0
  5  6  1  0
  6  7  1  0
  7  8  1  0
  8  9  2  0
  9 10  1  0
 10 11  2  0
 11 12  1  0
 12 13  2  0
 13 14  1  0
 14 15  1  0
 15 16  2  0
  3 17  2  0
 17 18  1  0
 18 19  2  0
 18 20  1  0
 20 21  1  0
 21 22  2  0
 22 23  1  0
 23 24  2  0
 24 25  1  0
 25 26  2  0
 19  1  1  0
 26 21  1  0
 16  4  1  0
 26 17  1  0
 14  6  2  0
 13  8  1  0
  1 27  1  0
  2 28  1  0
  5 29  1  0
  7 30  1  0
  9 31  1  0
 10 32  1  0
 12 33  1  0
 15 34  1  0
 19 35  1  0
 20 36  1  0
 22 37  1  0
 24 38  1  0
 25 39  1  0
M  END
