
     RDKit          3D

 38 43  0  0  0  0  0  0  0  0999 V2000
   -3.0481    2.6108    2.4019 C   0  0  0  0  0  0  0  0  0  0  0  0
   -1.7813    2.3859    1.8604 C   0  0  0  0  0  0  0  0  0  0  0  0
   -1.5349    1.3203    0.9670 C   0  0  0  0  0  0  0  0  0  0  0  0
   -0.1949    1.0669    0.4456 C   0  0  0  0  0  0  0  0  0  0  0  0
    0.5485   -0.0344    0.8700 C   0  0  0  0  0  0  0  0  0  0  0  0
    1.8155   -0.1649    0.3034 C   0  0  0  0  0  0  0  0  0  0  0  0
    2.7868   -1.1185    0.4947 N   0  0  0  0  0  0  0  0  0  0  0  0
    3.8888   -0.8529   -0.2831 C   0  0  0  0  0  0  0  0  0  0  0  0
    5.0927   -1.5419   -0.4141 C   0  0  0  0  0  0  0  0  0  0  0  0
    5.9958   -0.9785   -1.3026 C   0  0  0  0  0  0  0  0  0  0  0  0
    5.7812    0.1496   -2.0141 N   0  0  0  0  0  0  0  0  0  0  0  0
    4.6021    0.8034   -1.8680 C   0  0  0  0  0  0  0  0  0  0  0  0
    3.6204    0.3164   -0.9953 C   0  0  0  0  0  0  0  0  0  0  0  0
    2.3104    0.7519   -0.6223 C   0  0  0  0  0  0  0  0  0  0  0  0
    1.5004    1.8354   -0.9804 C   0  0  0  0  0  0  0  0  0  0  0  0
    0.2642    1.9818   -0.4419 N   0  0  0  0  0  0  0  0  0  0  0  0
   -2.6242    0.4929    0.5974 C   0  0  0  0  0  0  0  0  0  0  0  0
   -3.8662    0.7500    1.1731 C   0  0  0  0  0  0  0  0  0  0  0  0
   -4.1218    1.7829    2.0736 C   0  0  0  0  0  0  0  0  0  0  0  0
   -4.7966   -0.1405    0.7410 O   0  0  0  0  0  0  0  0  0  0  0  0
   -4.1816   -0.9702   -0.1425 C   0  0  0  0  0  0  0  0  0  0  0  0
   -4.8286   -1.9707   -0.7693 N   0  0  0  0  0  0  0  0  0  0  0  0
   -4.0433   -2.6586   -1.6243 C   0  0  0  0  0  0  0  0  0  0  0  0
   -2.7006   -2.4077   -1.8706 C   0  0  0  0  0  0  0  0  0  0  0  0
   -2.0703   -1.3648   -1.1912 C   0  0  0  0  0  0  0  0  0  0  0  0
   -2.8395   -0.6165   -0.2812 C   0  0  0  0  0  0  0  0  0  0  0  0
   -3.2002    3.4408    3.0886 H   0  0  0  0  0  0  0  0  0  0  0  0
   -0.9611    3.0487    2.1350 H   0  0  0  0  0  0  0  0  0  0  0  0
    0.1615   -0.7416    1.5940 H   0  0  0  0  0  0  0  0  0  0  0  0
    2.7033   -1.9069    1.1209 H   0  0  0  0  0  0  0  0  0  0  0  0
    5.3164   -2.4489    0.1320 H   0  0  0  0  0  0  0  0  0  0  0  0
    6.9636   -1.4445   -1.4721 H   0  0  0  0  0  0  0  0  0  0  0  0
    4.4773    1.7038   -2.4587 H   0  0  0  0  0  0  0  0  0  0  0  0
    1.8069    2.5971   -1.6884 H   0  0  0  0  0  0  0  0  0  0  0  0
   -5.1129    1.9372    2.4842 H   0  0  0  0  0  0  0  0  0  0  0  0
   -4.5505   -3.4673   -2.1466 H   0  0  0  0  0  0  0  0  0  0  0  0
   -2.1526   -3.0106   -2.5876 H   0  0  0  0  0  0  0  0  0  0  0  0
   -1.0268   -1.1355   -1.3801 H   0  0  0  0  0  0  0  0  0  0  0  0
  1  2  2  0
  2  3  1  0
  3  4  1  0
  4  5  2  0
  5  6  1  0
  6  7  1  0
  7  8  1  0
  8  9  2  0
  9 10  1  0
 10 11  2  0
 11 12  1  0
 12 13  2  0
 13 14  1  0
 14 15  1  0
 15 16  2  0
  3 17  2  0
 17 18  1  0
 18 19  2  0
 18 20  1  0
 20 21  1  0
 21 22  2  0
 22 23  1  0
 23 24  2  0
 24 25  1  0
 25 26  2  0
 19  1  1  0
 26 21  1  0
 16  4  1  0
 26 17  1  0
 14  6  2  0
 13  8  1  0
  1 27  1  0
  2 28  1  0
  5 29  1  0
  7 30  1  0
  9 31  1  0
 10 32  1  0
 12 33  1  0
 15 34  1  0
 19 35  1  0
 23 36  1  0
 24 37  1  0
 25 38  1  0
M  END
