
     RDKit          3D

 39 44  0  0  0  0  0  0  0  0999 V2000
    2.6622    1.0117   -3.9064 C   0  0  0  0  0  0  0  0  0  0  0  0
    1.4571    0.7557   -3.2494 C   0  0  0  0  0  0  0  0  0  0  0  0
    1.4250    0.3634   -1.8949 C   0  0  0  0  0  0  0  0  0  0  0  0
    0.1617    0.0992   -1.2104 C   0  0  0  0  0  0  0  0  0  0  0  0
   -0.4467   -1.1524   -1.3019 C   0  0  0  0  0  0  0  0  0  0  0  0
   -1.6524   -1.4167   -0.6419 C   0  0  0  0  0  0  0  0  0  0  0  0
   -2.2878   -0.4161    0.1367 C   0  0  0  0  0  0  0  0  0  0  0  0
   -1.6709    0.8319    0.2142 C   0  0  0  0  0  0  0  0  0  0  0  0
   -0.4574    1.1041   -0.4511 C   0  0  0  0  0  0  0  0  0  0  0  0
   -2.5686    1.9178    1.1918 S   0  0  0  0  0  0  0  0  0  0  0  0
   -3.7865    0.7585    1.5288 C   0  0  0  0  0  0  0  0  0  0  0  0
   -4.9328    0.9472    2.3272 C   0  0  0  0  0  0  0  0  0  0  0  0
   -5.8255   -0.1127    2.4951 C   0  0  0  0  0  0  0  0  0  0  0  0
   -5.5878   -1.3347    1.8847 C   0  0  0  0  0  0  0  0  0  0  0  0
   -4.4492   -1.5164    1.0938 C   0  0  0  0  0  0  0  0  0  0  0  0
   -3.5206   -0.4594    0.9020 C   0  0  0  0  0  0  0  0  0  0  0  0
    2.6549    0.2295   -1.2047 C   0  0  0  0  0  0  0  0  0  0  0  0
    3.8299    0.4961   -1.9027 C   0  0  0  0  0  0  0  0  0  0  0  0
    3.8820    0.8863   -3.2399 C   0  0  0  0  0  0  0  0  0  0  0  0
    4.9176    0.3249   -1.1070 O   0  0  0  0  0  0  0  0  0  0  0  0
    4.4658   -0.0570    0.1172 C   0  0  0  0  0  0  0  0  0  0  0  0
    5.2924   -0.3124    1.1488 N   0  0  0  0  0  0  0  0  0  0  0  0
    4.6412   -0.6776    2.2734 C   0  0  0  0  0  0  0  0  0  0  0  0
    3.2649   -0.7963    2.4105 C   0  0  0  0  0  0  0  0  0  0  0  0
    2.4485   -0.5222    1.3132 C   0  0  0  0  0  0  0  0  0  0  0  0
    3.0732   -0.1341    0.1140 C   0  0  0  0  0  0  0  0  0  0  0  0
    2.6517    1.3144   -4.9515 H   0  0  0  0  0  0  0  0  0  0  0  0
    0.5225    0.8658   -3.7982 H   0  0  0  0  0  0  0  0  0  0  0  0
    0.0177   -1.9437   -1.8883 H   0  0  0  0  0  0  0  0  0  0  0  0
   -2.1011   -2.4031   -0.7303 H   0  0  0  0  0  0  0  0  0  0  0  0
   -0.0025    2.0890   -0.3686 H   0  0  0  0  0  0  0  0  0  0  0  0
   -5.1213    1.9043    2.8060 H   0  0  0  0  0  0  0  0  0  0  0  0
   -6.7127    0.0240    3.1089 H   0  0  0  0  0  0  0  0  0  0  0  0
   -6.2879   -2.1556    2.0196 H   0  0  0  0  0  0  0  0  0  0  0  0
   -4.2786   -2.4808    0.6220 H   0  0  0  0  0  0  0  0  0  0  0  0
    4.8283    1.0809   -3.7312 H   0  0  0  0  0  0  0  0  0  0  0  0
    5.2920   -0.8875    3.1198 H   0  0  0  0  0  0  0  0  0  0  0  0
    2.8319   -1.0981    3.3588 H   0  0  0  0  0  0  0  0  0  0  0  0
    1.3697   -0.6082    1.3920 H   0  0  0  0  0  0  0  0  0  0  0  0
  1  2  2  0
  2  3  1  0
  3  4  1  0
  4  5  2  0
  5  6  1  0
  6  7  2  0
  7  8  1  0
  8  9  2  0
  8 10  1  0
 10 11  1  0
 11 12  2  0
 12 13  1  0
 13 14  2  0
 14 15  1  0
 15 16  2  0
  3 17  2  0
 17 18  1  0
 18 19  2  0
 18 20  1  0
 20 21  1  0
 21 22  2  0
 22 23  1  0
 23 24  2  0
 24 25  1  0
 25 26  2  0
 19  1  1  0
 26 21  1  0
  9  4  1  0
 16 11  1  0
 26 17  1  0
 16  7  1  0
  1 27  1  0
  2 28  1  0
  5 29  1  0
  6 30  1  0
  9 31  1  0
 12 32  1  0
 13 33  1  0
 14 34  1  0
 15 35  1  0
 19 36  1  0
 23 37  1  0
 24 38  1  0
 25 39  1  0
M  END
