
     RDKit          3D

 32 36  0  0  0  0  0  0  0  0999 V2000
    0.8525    0.2637   -3.7659 C   0  0  0  0  0  0  0  0  0  0  0  0
   -0.1600    0.2841   -2.8060 C   0  0  0  0  0  0  0  0  0  0  0  0
    0.1211    0.2085   -1.4224 C   0  0  0  0  0  0  0  0  0  0  0  0
   -0.9532    0.2827   -0.4388 C   0  0  0  0  0  0  0  0  0  0  0  0
   -1.0402    1.2909    0.5087 C   0  0  0  0  0  0  0  0  0  0  0  0
   -2.0394    1.3617    1.4157 N   0  0  0  0  0  0  0  0  0  0  0  0
   -2.9807    0.4126    1.3497 C   0  0  0  0  0  0  0  0  0  0  0  0
   -3.9846    0.4579    2.2357 N   0  0  0  0  0  0  0  0  0  0  0  0
   -4.9229   -0.5062    2.1454 C   0  0  0  0  0  0  0  0  0  0  0  0
   -4.8623   -1.4981    1.1921 C   0  0  0  0  0  0  0  0  0  0  0  0
   -3.8603   -1.5657    0.2923 N   0  0  0  0  0  0  0  0  0  0  0  0
   -2.9150   -0.6188    0.3617 C   0  0  0  0  0  0  0  0  0  0  0  0
   -1.9083   -0.6709   -0.5204 N   0  0  0  0  0  0  0  0  0  0  0  0
    1.4759    0.0642   -1.0253 C   0  0  0  0  0  0  0  0  0  0  0  0
    2.4505    0.0607   -2.0219 C   0  0  0  0  0  0  0  0  0  0  0  0
    2.1899    0.1632   -3.3872 C   0  0  0  0  0  0  0  0  0  0  0  0
    3.6933   -0.0566   -1.4893 O   0  0  0  0  0  0  0  0  0  0  0  0
    3.5486   -0.1646   -0.1435 C   0  0  0  0  0  0  0  0  0  0  0  0
    4.5978   -0.3071    0.6870 N   0  0  0  0  0  0  0  0  0  0  0  0
    4.2414   -0.4229    1.9824 C   0  0  0  0  0  0  0  0  0  0  0  0
    2.9412   -0.4063    2.4659 C   0  0  0  0  0  0  0  0  0  0  0  0
    1.8844   -0.2519    1.5673 C   0  0  0  0  0  0  0  0  0  0  0  0
    2.1972   -0.1135    0.2017 C   0  0  0  0  0  0  0  0  0  0  0  0
    0.5962    0.3279   -4.8215 H   0  0  0  0  0  0  0  0  0  0  0  0
   -1.1961    0.3637   -3.1368 H   0  0  0  0  0  0  0  0  0  0  0  0
   -0.3004    2.0835    0.5702 H   0  0  0  0  0  0  0  0  0  0  0  0
   -5.7304   -0.4559    2.8675 H   0  0  0  0  0  0  0  0  0  0  0  0
   -5.6194   -2.2713    1.1226 H   0  0  0  0  0  0  0  0  0  0  0  0
    2.9934    0.1484   -4.1147 H   0  0  0  0  0  0  0  0  0  0  0  0
    5.0768   -0.5423    2.6694 H   0  0  0  0  0  0  0  0  0  0  0  0
    2.7507   -0.5170    3.5289 H   0  0  0  0  0  0  0  0  0  0  0  0
    0.8621   -0.2565    1.9296 H   0  0  0  0  0  0  0  0  0  0  0  0
  1  2  2  0
  2  3  1  0
  3  4  1  0
  4  5  2  0
  5  6  1  0
  6  7  2  0
  7  8  1  0
  8  9  2  0
  9 10  1  0
 10 11  2  0
 11 12  1  0
 12 13  2  0
  3 14  2  0
 14 15  1  0
 15 16  2  0
 15 17  1  0
 17 18  1  0
 18 19  2  0
 19 20  1  0
 20 21  2  0
 21 22  1  0
 22 23  2  0
 16  1  1  0
 23 18  1  0
 13  4  1  0
 23 14  1  0
 12  7  1  0
  1 24  1  0
  2 25  1  0
  5 26  1  0
  9 27  1  0
 10 28  1  0
 16 29  1  0
 20 30  1  0
 21 31  1  0
 22 32  1  0
M  END
