
     RDKit          3D

 32 36  0  0  0  0  0  0  0  0999 V2000
   -0.9955    2.9190   -2.5276 C   0  0  0  0  0  0  0  0  0  0  0  0
    0.0014    2.3611   -1.7453 C   0  0  0  0  0  0  0  0  0  0  0  0
   -0.2668    1.2831   -0.8756 C   0  0  0  0  0  0  0  0  0  0  0  0
    0.8014    0.7783   -0.0203 C   0  0  0  0  0  0  0  0  0  0  0  0
    0.8553    1.0425    1.3398 C   0  0  0  0  0  0  0  0  0  0  0  0
    1.8518    0.5914    2.1328 N   0  0  0  0  0  0  0  0  0  0  0  0
    2.8189   -0.1196    1.5401 C   0  0  0  0  0  0  0  0  0  0  0  0
    3.8205   -0.5788    2.3021 N   0  0  0  0  0  0  0  0  0  0  0  0
    4.7835   -1.2902    1.6821 C   0  0  0  0  0  0  0  0  0  0  0  0
    4.7489   -1.5427    0.3289 C   0  0  0  0  0  0  0  0  0  0  0  0
    3.7496   -1.0943   -0.4575 N   0  0  0  0  0  0  0  0  0  0  0  0
    2.7809   -0.3832    0.1349 C   0  0  0  0  0  0  0  0  0  0  0  0
    1.7771    0.0679   -0.6286 N   0  0  0  0  0  0  0  0  0  0  0  0
   -1.5828    0.7175   -0.8243 C   0  0  0  0  0  0  0  0  0  0  0  0
   -2.5690    1.3272   -1.6143 C   0  0  0  0  0  0  0  0  0  0  0  0
   -2.2913    2.4200   -2.4612 C   0  0  0  0  0  0  0  0  0  0  0  0
   -4.1098    0.5950   -1.4106 S   0  0  0  0  0  0  0  0  0  0  0  0
   -3.5034   -0.5614   -0.3355 C   0  0  0  0  0  0  0  0  0  0  0  0
   -4.3318   -1.4906    0.1874 N   0  0  0  0  0  0  0  0  0  0  0  0
   -3.7318   -2.3757    1.0023 C   0  0  0  0  0  0  0  0  0  0  0  0
   -2.3867   -2.3848    1.3110 C   0  0  0  0  0  0  0  0  0  0  0  0
   -1.5694   -1.4034    0.7533 C   0  0  0  0  0  0  0  0  0  0  0  0
   -2.1384   -0.4274   -0.1025 C   0  0  0  0  0  0  0  0  0  0  0  0
   -0.7683    3.7513   -3.1895 H   0  0  0  0  0  0  0  0  0  0  0  0
    1.0104    2.7684   -1.8040 H   0  0  0  0  0  0  0  0  0  0  0  0
    0.0888    1.6278    1.8387 H   0  0  0  0  0  0  0  0  0  0  0  0
    5.5889   -1.6531    2.3109 H   0  0  0  0  0  0  0  0  0  0  0  0
    5.5256   -2.1152   -0.1660 H   0  0  0  0  0  0  0  0  0  0  0  0
   -3.0790    2.8628   -3.0662 H   0  0  0  0  0  0  0  0  0  0  0  0
   -4.3961   -3.1276    1.4222 H   0  0  0  0  0  0  0  0  0  0  0  0
   -1.9752   -3.1430    1.9688 H   0  0  0  0  0  0  0  0  0  0  0  0
   -0.5076   -1.4224    0.9737 H   0  0  0  0  0  0  0  0  0  0  0  0
  1  2  2  0
  2  3  1  0
  3  4  1  0
  4  5  2  0
  5  6  1  0
  6  7  2  0
  7  8  1  0
  8  9  2  0
  9 10  1  0
 10 11  2  0
 11 12  1  0
 12 13  2  0
  3 14  2  0
 14 15  1  0
 15 16  2  0
 15 17  1  0
 17 18  1  0
 18 19  2  0
 19 20  1  0
 20 21  2  0
 21 22  1  0
 22 23  2  0
 16  1  1  0
 23 18  1  0
 13  4  1  0
 23 14  1  0
 12  7  1  0
  1 24  1  0
  2 25  1  0
  5 26  1  0
  9 27  1  0
 10 28  1  0
 16 29  1  0
 20 30  1  0
 21 31  1  0
 22 32  1  0
M  END
