
     RDKit          3D

 26 29  0  0  0  0  0  0  0  0999 V2000
   -2.2718    2.5661   -0.0471 C   0  0  0  0  0  0  0  0  0  0  0  0
   -2.4501    1.2094    0.1632 C   0  0  0  0  0  0  0  0  0  0  0  0
   -1.3504    0.3355    0.1377 C   0  0  0  0  0  0  0  0  0  0  0  0
   -1.5816   -1.0651    0.3710 C   0  0  0  0  0  0  0  0  0  0  0  0
   -1.5826   -1.8217    1.5589 C   0  0  0  0  0  0  0  0  0  0  0  0
   -1.8644   -3.1075    1.3305 N   0  0  0  0  0  0  0  0  0  0  0  0
   -2.0801   -3.1981   -0.0375 O   0  0  0  0  0  0  0  0  0  0  0  0
   -1.9192   -1.9733   -0.6011 C   0  0  0  0  0  0  0  0  0  0  0  0
   -0.0259    0.8151   -0.1009 C   0  0  0  0  0  0  0  0  0  0  0  0
    0.1081    2.1966   -0.3071 C   0  0  0  0  0  0  0  0  0  0  0  0
   -0.9973    3.0743   -0.2835 C   0  0  0  0  0  0  0  0  0  0  0  0
    1.7402    2.6564   -0.5809 S   0  0  0  0  0  0  0  0  0  0  0  0
    2.2935    1.0638   -0.4371 C   0  0  0  0  0  0  0  0  0  0  0  0
    3.6103    0.7974   -0.5721 N   0  0  0  0  0  0  0  0  0  0  0  0
    3.9316   -0.5016   -0.4400 C   0  0  0  0  0  0  0  0  0  0  0  0
    3.0342   -1.5194   -0.1885 C   0  0  0  0  0  0  0  0  0  0  0  0
    1.6845   -1.1990   -0.0565 C   0  0  0  0  0  0  0  0  0  0  0  0
    1.2742    0.1517   -0.1821 C   0  0  0  0  0  0  0  0  0  0  0  0
   -3.1264    3.2386   -0.0269 H   0  0  0  0  0  0  0  0  0  0  0  0
   -3.4524    0.8274    0.3495 H   0  0  0  0  0  0  0  0  0  0  0  0
   -1.3860   -1.4996    2.5720 H   0  0  0  0  0  0  0  0  0  0  0  0
   -2.0715   -1.9257   -1.6694 H   0  0  0  0  0  0  0  0  0  0  0  0
   -0.8567    4.1403   -0.4477 H   0  0  0  0  0  0  0  0  0  0  0  0
    4.9917   -0.7192   -0.5479 H   0  0  0  0  0  0  0  0  0  0  0  0
    3.3728   -2.5459   -0.0958 H   0  0  0  0  0  0  0  0  0  0  0  0
    0.9753   -1.9963    0.1394 H   0  0  0  0  0  0  0  0  0  0  0  0
  1  2  2  0
  2  3  1  0
  3  4  1  0
  4  5  1  0
  5  6  2  0
  6  7  1  0
  7  8  1  0
  3  9  2  0
  9 10  1  0
 10 11  2  0
 10 12  1  0
 12 13  1  0
 13 14  2  0
 14 15  1  0
 15 16  2  0
 16 17  1  0
 17 18  2  0
 11  1  1  0
 18 13  1  0
  8  4  2  0
 18  9  1  0
  1 19  1  0
  2 20  1  0
  5 21  1  0
  8 22  1  0
 11 23  1  0
 15 24  1  0
 16 25  1  0
 17 26  1  0
M  END
