
     RDKit          3D

 45 52  0  0  0  0  0  0  0  0999 V2000
   -1.5760    3.8524    1.4197 Si  0  0  0  0  0  4  0  0  0  0  0  0
   -3.2219    3.0833    1.0063 C   0  0  0  0  0  0  0  0  0  0  0  0
   -3.0823    1.8230    0.5445 C   0  0  0  0  0  0  0  0  0  0  0  0
   -4.1840    0.9599    0.1302 C   0  0  0  0  0  0  0  0  0  0  0  0
   -5.6135    1.2981    0.1471 C   0  0  0  0  0  0  0  0  0  0  0  0
   -6.4513    0.3403   -0.2834 C   0  0  0  0  0  0  0  0  0  0  0  0
   -5.5042   -1.1844   -0.7903 Si  0  0  0  0  0  4  0  0  0  0  0  0
   -3.9070   -0.2950   -0.3262 C   0  0  0  0  0  0  0  0  0  0  0  0
   -2.5295   -0.8361   -0.4218 C   0  0  0  0  0  0  0  0  0  0  0  0
   -2.2231   -2.1512   -0.8982 C   0  0  0  0  0  0  0  0  0  0  0  0
   -3.0747   -3.1055   -1.3340 N   0  0  0  0  0  0  0  0  0  0  0  0
   -2.1739   -4.4435   -1.7695 S   0  0  0  0  0  0  0  0  0  0  0  0
   -0.6311   -3.8942   -1.4302 N   0  0  0  0  0  0  0  0  0  0  0  0
   -0.8613   -2.6703   -0.9816 C   0  0  0  0  0  0  0  0  0  0  0  0
    0.1886   -1.8166   -0.5662 C   0  0  0  0  0  0  0  0  0  0  0  0
    1.5639   -2.0449   -0.5297 C   0  0  0  0  0  0  0  0  0  0  0  0
    2.0902   -0.8639   -0.0376 C   0  0  0  0  0  0  0  0  0  0  0  0
    1.0786    0.0285    0.2265 O   0  0  0  0  0  0  0  0  0  0  0  0
   -0.1161   -0.5587   -0.1106 C   0  0  0  0  0  0  0  0  0  0  0  0
   -1.4135   -0.0244   -0.0201 C   0  0  0  0  0  0  0  0  0  0  0  0
   -1.6767    1.3457    0.4752 C   0  0  0  0  0  0  0  0  0  0  0  0
   -0.7692    2.2578    0.8839 C   0  0  0  0  0  0  0  0  0  0  0  0
    3.4204   -0.3879    0.2742 C   0  0  0  0  0  0  0  0  0  0  0  0
    3.7023    0.4364    1.3945 C   0  0  0  0  0  0  0  0  0  0  0  0
    5.0105    0.8998    1.7459 C   0  0  0  0  0  0  0  0  0  0  0  0
    6.1746    0.5930    1.0128 C   0  0  0  0  0  0  0  0  0  0  0  0
    5.8970   -0.2048   -0.0973 C   0  0  0  0  0  0  0  0  0  0  0  0
    6.8806   -0.6108   -0.9649 C   0  0  0  0  0  0  0  0  0  0  0  0
    6.2302   -1.5504   -2.2455 S   0  0  0  0  0  0  0  0  0  0  0  0
    4.6273   -1.4070   -1.6359 C   0  0  0  0  0  0  0  0  0  0  0  0
    4.5809   -0.6831   -0.4659 C   0  0  0  0  0  0  0  0  0  0  0  0
   -1.2416    4.9893    0.5287 H   0  0  0  0  0  0  0  0  0  0  0  0
   -1.4186    4.1087    2.8717 H   0  0  0  0  0  0  0  0  0  0  0  0
   -4.1352    3.6388    1.1415 H   0  0  0  0  0  0  0  0  0  0  0  0
   -5.9572    2.2660    0.4889 H   0  0  0  0  0  0  0  0  0  0  0  0
   -7.5262    0.3973   -0.3459 H   0  0  0  0  0  0  0  0  0  0  0  0
   -5.8276   -2.3241    0.1050 H   0  0  0  0  0  0  0  0  0  0  0  0
   -5.6437   -1.4275   -2.2486 H   0  0  0  0  0  0  0  0  0  0  0  0
    2.1065   -2.9389   -0.8022 H   0  0  0  0  0  0  0  0  0  0  0  0
    0.3030    2.1652    0.9254 H   0  0  0  0  0  0  0  0  0  0  0  0
    2.8750    0.7327    2.0421 H   0  0  0  0  0  0  0  0  0  0  0  0
    5.1084    1.5250    2.6342 H   0  0  0  0  0  0  0  0  0  0  0  0
    7.1551    0.9543    1.2940 H   0  0  0  0  0  0  0  0  0  0  0  0
    7.9421   -0.4071   -0.9312 H   0  0  0  0  0  0  0  0  0  0  0  0
    3.8242   -1.8653   -2.1938 H   0  0  0  0  0  0  0  0  0  0  0  0
  1  2  1  0
  2  3  2  0
  3  4  1  0
  4  5  1  0
  5  6  2  0
  6  7  1  0
  7  8  1  0
  8  9  1  0
  9 10  1  0
 10 11  2  0
 11 12  1  0
 12 13  1  0
 13 14  2  0
 14 15  1  0
 15 16  1  0
 16 17  2  0
 17 18  1  0
 18 19  1  0
 19 20  1  0
 20 21  1  0
 21 22  2  0
 17 23  1  0
 23 24  2  0
 24 25  1  0
 25 26  2  0
 26 27  1  0
 27 28  2  0
 28 29  1  0
 29 30  1  0
 30 31  2  0
 22  1  1  0
 31 23  1  0
 21  3  1  0
 31 27  1  0
  8  4  2  0
 20  9  2  0
 14 10  1  0
 19 15  2  0
  1 32  1  0
  1 33  1  0
  2 34  1  0
  5 35  1  0
  6 36  1  0
  7 37  1  0
  7 38  1  0
 16 39  1  0
 22 40  1  0
 24 41  1  0
 25 42  1  0
 26 43  1  0
 28 44  1  0
 30 45  1  0
M  END
