
     RDKit          3D

 25 28  0  0  0  0  0  0  0  0999 V2000
    1.1411   -3.1990    0.2809 C   0  0  0  0  0  0  0  0  0  0  0  0
    1.8819   -2.0254    0.4162 C   0  0  0  0  0  0  0  0  0  0  0  0
    1.2739   -0.7534    0.3203 C   0  0  0  0  0  0  0  0  0  0  0  0
    2.0854    0.4442    0.4285 C   0  0  0  0  0  0  0  0  0  0  0  0
    1.9331    1.5319   -0.4028 N   0  0  0  0  0  0  0  0  0  0  0  0
    2.8985    2.3222   -0.0078 C   0  0  0  0  0  0  0  0  0  0  0  0
    3.6430    1.8166    1.0047 O   0  0  0  0  0  0  0  0  0  0  0  0
    3.1111    0.5604    1.2907 N   0  0  0  0  0  0  0  0  0  0  0  0
   -0.1244   -0.6769    0.1069 C   0  0  0  0  0  0  0  0  0  0  0  0
   -0.8143   -1.8824   -0.0271 C   0  0  0  0  0  0  0  0  0  0  0  0
   -0.2315   -3.1477    0.0472 C   0  0  0  0  0  0  0  0  0  0  0  0
   -2.1376   -1.6707   -0.2365 O   0  0  0  0  0  0  0  0  0  0  0  0
   -2.3397   -0.3289   -0.2191 C   0  0  0  0  0  0  0  0  0  0  0  0
   -3.5589    0.2173   -0.3848 N   0  0  0  0  0  0  0  0  0  0  0  0
   -3.5544    1.5636   -0.3140 C   0  0  0  0  0  0  0  0  0  0  0  0
   -2.4385    2.3553   -0.0893 C   0  0  0  0  0  0  0  0  0  0  0  0
   -1.1958    1.7422    0.0770 C   0  0  0  0  0  0  0  0  0  0  0  0
   -1.1334    0.3381    0.0017 C   0  0  0  0  0  0  0  0  0  0  0  0
    1.6387   -4.1638    0.3537 H   0  0  0  0  0  0  0  0  0  0  0  0
    2.9555   -2.1007    0.5880 H   0  0  0  0  0  0  0  0  0  0  0  0
    3.1719    3.2995   -0.3754 H   0  0  0  0  0  0  0  0  0  0  0  0
   -0.8285   -4.0459   -0.0643 H   0  0  0  0  0  0  0  0  0  0  0  0
   -4.5312    2.0238   -0.4472 H   0  0  0  0  0  0  0  0  0  0  0  0
   -2.5320    3.4353   -0.0429 H   0  0  0  0  0  0  0  0  0  0  0  0
   -0.3138    2.3443    0.2610 H   0  0  0  0  0  0  0  0  0  0  0  0
  1  2  2  0
  2  3  1  0
  3  4  1  0
  4  5  1  0
  5  6  2  0
  6  7  1  0
  7  8  1  0
  3  9  2  0
  9 10  1  0
 10 11  2  0
 10 12  1  0
 12 13  1  0
 13 14  2  0
 14 15  1  0
 15 16  2  0
 16 17  1  0
 17 18  2  0
 11  1  1  0
 18 13  1  0
  8  4  2  0
 18  9  1  0
  1 19  1  0
  2 20  1  0
  6 21  1  0
 11 22  1  0
 15 23  1  0
 16 24  1  0
 17 25  1  0
M  END
