
     RDKit          3D

 25 27  0  0  0  0  0  0  0  0999 V2000
    4.7799   -0.4365   -0.3873 C   0  0  0  0  0  0  0  0  0  0  0  0
    3.5186   -0.8684   -0.7597 C   0  0  0  0  0  0  0  0  0  0  0  0
    2.4010   -0.2085   -0.2395 C   0  0  0  0  0  0  0  0  0  0  0  0
    1.0658   -0.6472   -0.6186 C   0  0  0  0  0  0  0  0  0  0  0  0
    0.6925   -1.6237   -1.4207 N   0  0  0  0  0  0  0  0  0  0  0  0
   -0.6870   -1.6143   -1.4351 N   0  0  0  0  0  0  0  0  0  0  0  0
   -1.0636   -0.6327   -0.6409 C   0  0  0  0  0  0  0  0  0  0  0  0
   -2.4003   -0.1758   -0.2897 C   0  0  0  0  0  0  0  0  0  0  0  0
   -3.5157   -0.8205   -0.8332 C   0  0  0  0  0  0  0  0  0  0  0  0
   -4.7786   -0.3714   -0.4872 C   0  0  0  0  0  0  0  0  0  0  0  0
   -5.0001    0.6615    0.3514 N   0  0  0  0  0  0  0  0  0  0  0  0
   -3.9142    1.2726    0.8670 C   0  0  0  0  0  0  0  0  0  0  0  0
   -2.6120    0.8968    0.5814 C   0  0  0  0  0  0  0  0  0  0  0  0
   -0.0001    0.0302   -0.0833 O   0  0  0  0  0  0  0  0  0  0  0  0
    2.6090    0.8613    0.6360 C   0  0  0  0  0  0  0  0  0  0  0  0
    3.9099    1.2193    0.9488 C   0  0  0  0  0  0  0  0  0  0  0  0
    4.9980    0.5934    0.4559 N   0  0  0  0  0  0  0  0  0  0  0  0
    5.6740   -0.9219   -0.7688 H   0  0  0  0  0  0  0  0  0  0  0  0
    3.4135   -1.7055   -1.4439 H   0  0  0  0  0  0  0  0  0  0  0  0
   -3.4077   -1.6591   -1.5152 H   0  0  0  0  0  0  0  0  0  0  0  0
   -5.6710   -0.8446   -0.8874 H   0  0  0  0  0  0  0  0  0  0  0  0
   -4.1247    2.1004    1.5386 H   0  0  0  0  0  0  0  0  0  0  0  0
   -1.7881    1.4371    1.0351 H   0  0  0  0  0  0  0  0  0  0  0  0
    1.7832    1.4128    1.0724 H   0  0  0  0  0  0  0  0  0  0  0  0
    4.1176    2.0443    1.6247 H   0  0  0  0  0  0  0  0  0  0  0  0
  1  2  2  0
  2  3  1  0
  3  4  1  0
  4  5  2  0
  5  6  1  0
  6  7  2  0
  7  8  1  0
  8  9  2  0
  9 10  1  0
 10 11  2  0
 11 12  1  0
 12 13  2  0
  7 14  1  0
  3 15  2  0
 15 16  1  0
 16 17  2  0
 17  1  1  0
 14  4  1  0
 13  8  1  0
  1 18  1  0
  2 19  1  0
  9 20  1  0
 10 21  1  0
 12 22  1  0
 13 23  1  0
 15 24  1  0
 16 25  1  0
M  END
