
     RDKit          3D

 41 46  0  0  0  0  0  0  0  0999 V2000
    0.3497    0.5275    1.6759 C   0  0  0  0  0  0  0  0  0  0  0  0
    1.7669    0.3732    1.7316 C   0  0  0  0  0  0  0  0  0  0  0  0
    2.2392   -0.4505    0.7326 C   0  0  0  0  0  0  0  0  0  0  0  0
    0.9722   -1.0328   -0.2550 S   0  0  0  0  0  0  0  0  0  0  0  0
   -0.2296   -0.1836    0.6377 C   0  0  0  0  0  0  0  0  0  0  0  0
   -1.6264   -0.2687    0.2701 C   0  0  0  0  0  0  0  0  0  0  0  0
   -2.0571   -1.0036   -0.7336 N   0  0  0  0  0  0  0  0  0  0  0  0
   -3.4300   -0.8905   -0.8526 C   0  0  0  0  0  0  0  0  0  0  0  0
   -4.0620   -0.0669    0.0621 C   0  0  0  0  0  0  0  0  0  0  0  0
   -2.8583    0.5848    1.1109 S   0  0  0  0  0  0  0  0  0  0  0  0
   -5.4674    0.2817    0.2324 C   0  0  0  0  0  0  0  0  0  0  0  0
   -5.8387    1.0001    1.3441 N   0  0  0  0  0  0  0  0  0  0  0  0
   -7.1411    1.3581    1.5661 C   0  0  0  0  0  0  0  0  0  0  0  0
   -8.2378    1.0769    0.7612 C   0  0  0  0  0  0  0  0  0  0  0  0
   -7.9105    0.3427   -0.3934 C   0  0  0  0  0  0  0  0  0  0  0  0
   -8.7865   -0.0524   -1.3305 N   0  0  0  0  0  0  0  0  0  0  0  0
   -7.9145   -0.8727   -2.4778 S   0  0  0  0  0  0  0  0  0  0  0  0
   -6.3889   -0.7671   -1.8374 N   0  0  0  0  0  0  0  0  0  0  0  0
   -6.4901   -0.0776   -0.6853 C   0  0  0  0  0  0  0  0  0  0  0  0
    3.6220   -0.8514    0.4549 C   0  0  0  0  0  0  0  0  0  0  0  0
    4.0489   -2.1044    0.9257 C   0  0  0  0  0  0  0  0  0  0  0  0
    5.3555   -2.5322    0.7173 C   0  0  0  0  0  0  0  0  0  0  0  0
    6.2524   -1.7105    0.0395 C   0  0  0  0  0  0  0  0  0  0  0  0
    5.8581   -0.4528   -0.4428 C   0  0  0  0  0  0  0  0  0  0  0  0
    6.7787    0.3605   -1.1249 C   0  0  0  0  0  0  0  0  0  0  0  0
    6.4075    1.6114   -1.6158 C   0  0  0  0  0  0  0  0  0  0  0  0
    5.1086    2.0659   -1.4332 C   0  0  0  0  0  0  0  0  0  0  0  0
    4.1816    1.2699   -0.7569 C   0  0  0  0  0  0  0  0  0  0  0  0
    4.5281   -0.0031   -0.2422 C   0  0  0  0  0  0  0  0  0  0  0  0
   -0.2080    1.1377    2.3763 H   0  0  0  0  0  0  0  0  0  0  0  0
    2.4077    0.8448    2.4673 H   0  0  0  0  0  0  0  0  0  0  0  0
   -3.9169   -1.4500   -1.6425 H   0  0  0  0  0  0  0  0  0  0  0  0
   -7.2851    1.9243    2.4866 H   0  0  0  0  0  0  0  0  0  0  0  0
   -9.2445    1.3913    0.9960 H   0  0  0  0  0  0  0  0  0  0  0  0
    3.3568   -2.7526    1.4598 H   0  0  0  0  0  0  0  0  0  0  0  0
    5.6756   -3.5042    1.0830 H   0  0  0  0  0  0  0  0  0  0  0  0
    7.2705   -2.0631   -0.1131 H   0  0  0  0  0  0  0  0  0  0  0  0
    7.8006    0.0215   -1.2818 H   0  0  0  0  0  0  0  0  0  0  0  0
    7.1320    2.2263   -2.1429 H   0  0  0  0  0  0  0  0  0  0  0  0
    4.8101    3.0373   -1.8186 H   0  0  0  0  0  0  0  0  0  0  0  0
    3.1707    1.6551   -0.6405 H   0  0  0  0  0  0  0  0  0  0  0  0
  1  2  1  0
  2  3  2  0
  3  4  1  0
  4  5  1  0
  5  6  1  0
  6  7  2  0
  7  8  1  0
  8  9  2  0
  9 10  1  0
  9 11  1  0
 11 12  2  0
 12 13  1  0
 13 14  2  0
 14 15  1  0
 15 16  2  0
 16 17  1  0
 17 18  1  0
 18 19  2  0
  3 20  1  0
 20 21  2  0
 21 22  1  0
 22 23  2  0
 23 24  1  0
 24 25  2  0
 25 26  1  0
 26 27  2  0
 27 28  1  0
 28 29  2  0
  5  1  2  0
 10  6  1  0
 19 11  1  0
 29 20  1  0
 19 15  1  0
 29 24  1  0
  1 30  1  0
  2 31  1  0
  8 32  1  0
 13 33  1  0
 14 34  1  0
 21 35  1  0
 22 36  1  0
 23 37  1  0
 25 38  1  0
 26 39  1  0
 27 40  1  0
 28 41  1  0
M  END
