
     RDKit          3D

 32 36  0  0  0  0  0  0  0  0999 V2000
   -6.1327    0.5172    0.2015 C   0  0  0  0  0  0  0  0  0  0  0  0
   -4.9538    1.2472    0.1585 C   0  0  0  0  0  0  0  0  0  0  0  0
   -3.7908    0.4813    0.1164 C   0  0  0  0  0  0  0  0  0  0  0  0
   -2.4680    0.8584    0.0683 N   0  0  0  0  0  0  0  0  0  0  0  0
   -1.6457   -0.2436    0.0387 C   0  0  0  0  0  0  0  0  0  0  0  0
   -0.2150   -0.1875   -0.0133 C   0  0  0  0  0  0  0  0  0  0  0  0
    0.6941   -1.2295   -0.0461 C   0  0  0  0  0  0  0  0  0  0  0  0
    2.0065   -0.6846   -0.0939 C   0  0  0  0  0  0  0  0  0  0  0  0
    3.2987   -1.2372   -0.1408 C   0  0  0  0  0  0  0  0  0  0  0  0
    4.4252   -0.4042   -0.1819 C   0  0  0  0  0  0  0  0  0  0  0  0
    5.8320   -0.5865   -0.2329 C   0  0  0  0  0  0  0  0  0  0  0  0
    6.3870    0.6734   -0.2534 C   0  0  0  0  0  0  0  0  0  0  0  0
    5.4175    1.6259   -0.2183 O   0  0  0  0  0  0  0  0  0  0  0  0
    4.2266    0.9699   -0.1749 C   0  0  0  0  0  0  0  0  0  0  0  0
    2.9692    1.5516   -0.1293 C   0  0  0  0  0  0  0  0  0  0  0  0
    1.8653    0.7020   -0.0891 C   0  0  0  0  0  0  0  0  0  0  0  0
    0.5185    0.9755   -0.0402 N   0  0  0  0  0  0  0  0  0  0  0  0
   -2.4703   -1.3533    0.0690 C   0  0  0  0  0  0  0  0  0  0  0  0
   -3.8212   -0.9113    0.1179 C   0  0  0  0  0  0  0  0  0  0  0  0
   -5.0637   -1.5541    0.1633 C   0  0  0  0  0  0  0  0  0  0  0  0
   -6.2114   -0.8319    0.2048 N   0  0  0  0  0  0  0  0  0  0  0  0
   -7.0926    1.0267    0.2363 H   0  0  0  0  0  0  0  0  0  0  0  0
   -4.9491    2.3289    0.1580 H   0  0  0  0  0  0  0  0  0  0  0  0
   -2.1607    1.8184    0.0568 H   0  0  0  0  0  0  0  0  0  0  0  0
    0.4456   -2.2826   -0.0369 H   0  0  0  0  0  0  0  0  0  0  0  0
    3.4223   -2.3166   -0.1451 H   0  0  0  0  0  0  0  0  0  0  0  0
    6.3739   -1.5209   -0.2525 H   0  0  0  0  0  0  0  0  0  0  0  0
    7.4018    1.0439   -0.2903 H   0  0  0  0  0  0  0  0  0  0  0  0
    2.8626    2.6307   -0.1257 H   0  0  0  0  0  0  0  0  0  0  0  0
    0.1395    1.9094   -0.0266 H   0  0  0  0  0  0  0  0  0  0  0  0
   -2.1402   -2.3838    0.0573 H   0  0  0  0  0  0  0  0  0  0  0  0
   -5.1714   -2.6325    0.1675 H   0  0  0  0  0  0  0  0  0  0  0  0
  1  2  2  0
  2  3  1  0
  3  4  1  0
  4  5  1  0
  5  6  1  0
  6  7  2  0
  7  8  1  0
  8  9  2  0
  9 10  1  0
 10 11  1  0
 11 12  2  0
 12 13  1  0
 13 14  1  0
 14 15  1  0
 15 16  2  0
 16 17  1  0
  5 18  2  0
 18 19  1  0
 19 20  1  0
 20 21  2  0
 21  1  1  0
 19  3  2  0
 17  6  1  0
 16  8  1  0
 14 10  2  0
  1 22  1  0
  2 23  1  0
  4 24  1  0
  7 25  1  0
  9 26  1  0
 11 27  1  0
 12 28  1  0
 15 29  1  0
 17 30  1  0
 18 31  1  0
 20 32  1  0
M  END
