
     RDKit          3D

 31 35  0  0  0  0  0  0  0  0999 V2000
   -6.0296   -0.6420   -0.2895 C   0  0  0  0  0  0  0  0  0  0  0  0
   -4.8038   -1.2691   -0.4576 C   0  0  0  0  0  0  0  0  0  0  0  0
   -3.6946   -0.4660   -0.2034 C   0  0  0  0  0  0  0  0  0  0  0  0
   -2.3500   -0.7463   -0.2669 N   0  0  0  0  0  0  0  0  0  0  0  0
   -1.6103    0.3598    0.0717 C   0  0  0  0  0  0  0  0  0  0  0  0
   -0.1826    0.3276    0.0830 C   0  0  0  0  0  0  0  0  0  0  0  0
    0.7117    1.3385    0.3957 C   0  0  0  0  0  0  0  0  0  0  0  0
    2.0191    0.8067    0.2570 C   0  0  0  0  0  0  0  0  0  0  0  0
    3.3271    1.2812    0.4168 C   0  0  0  0  0  0  0  0  0  0  0  0
    4.3813    0.4074    0.1731 C   0  0  0  0  0  0  0  0  0  0  0  0
    5.7058    0.6997    0.2790 O   0  0  0  0  0  0  0  0  0  0  0  0
    6.3853   -0.4316   -0.0465 C   0  0  0  0  0  0  0  0  0  0  0  0
    5.5136   -1.4498   -0.3611 C   0  0  0  0  0  0  0  0  0  0  0  0
    4.2065   -0.9152   -0.2216 C   0  0  0  0  0  0  0  0  0  0  0  0
    2.8975   -1.3880   -0.3808 C   0  0  0  0  0  0  0  0  0  0  0  0
    1.8442   -0.5129   -0.1367 C   0  0  0  0  0  0  0  0  0  0  0  0
    0.5216   -0.8048   -0.2425 O   0  0  0  0  0  0  0  0  0  0  0  0
   -2.4987    1.3754    0.3599 C   0  0  0  0  0  0  0  0  0  0  0  0
   -3.8181    0.8666    0.1898 C   0  0  0  0  0  0  0  0  0  0  0  0
   -5.1026    1.4053    0.3308 C   0  0  0  0  0  0  0  0  0  0  0  0
   -6.1992    0.6445    0.0893 N   0  0  0  0  0  0  0  0  0  0  0  0
   -6.9533   -1.1880   -0.4648 H   0  0  0  0  0  0  0  0  0  0  0  0
   -4.7248   -2.3038   -0.7631 H   0  0  0  0  0  0  0  0  0  0  0  0
   -1.9498   -1.6379   -0.5254 H   0  0  0  0  0  0  0  0  0  0  0  0
    0.4497    2.3447    0.6902 H   0  0  0  0  0  0  0  0  0  0  0  0
    3.5235    2.3035    0.7227 H   0  0  0  0  0  0  0  0  0  0  0  0
    7.4631   -0.3540   -0.0078 H   0  0  0  0  0  0  0  0  0  0  0  0
    5.7875   -2.4530   -0.6545 H   0  0  0  0  0  0  0  0  0  0  0  0
    2.7019   -2.4102   -0.6867 H   0  0  0  0  0  0  0  0  0  0  0  0
   -2.2380    2.3812    0.6618 H   0  0  0  0  0  0  0  0  0  0  0  0
   -5.2840    2.4305    0.6321 H   0  0  0  0  0  0  0  0  0  0  0  0
  1  2  2  0
  2  3  1  0
  3  4  1  0
  4  5  1  0
  5  6  1  0
  6  7  2  0
  7  8  1  0
  8  9  2  0
  9 10  1  0
 10 11  1  0
 11 12  1  0
 12 13  2  0
 13 14  1  0
 14 15  1  0
 15 16  2  0
 16 17  1  0
  5 18  2  0
 18 19  1  0
 19 20  1  0
 20 21  2  0
 21  1  1  0
 19  3  2  0
 17  6  1  0
 16  8  1  0
 14 10  2  0
  1 22  1  0
  2 23  1  0
  4 24  1  0
  7 25  1  0
  9 26  1  0
 12 27  1  0
 13 28  1  0
 15 29  1  0
 18 30  1  0
 20 31  1  0
M  END
