
     RDKit          3D

 29 33  0  0  0  0  0  0  0  0999 V2000
   -5.7412    0.8390   -0.8000 C   0  0  0  0  0  0  0  0  0  0  0  0
   -4.4995    1.3943   -1.0716 C   0  0  0  0  0  0  0  0  0  0  0  0
   -3.4126    0.6504   -0.6187 C   0  0  0  0  0  0  0  0  0  0  0  0
   -2.0615    0.8895   -0.7092 N   0  0  0  0  0  0  0  0  0  0  0  0
   -1.3554   -0.1265   -0.1159 C   0  0  0  0  0  0  0  0  0  0  0  0
    0.0693   -0.1224   -0.0721 C   0  0  0  0  0  0  0  0  0  0  0  0
    0.7948    0.8537   -0.5967 N   0  0  0  0  0  0  0  0  0  0  0  0
    2.0886    0.4786   -0.3442 C   0  0  0  0  0  0  0  0  0  0  0  0
    3.3089    1.0881   -0.6470 C   0  0  0  0  0  0  0  0  0  0  0  0
    4.4664    0.4361   -0.2434 C   0  0  0  0  0  0  0  0  0  0  0  0
    5.7600    0.8284   -0.4219 O   0  0  0  0  0  0  0  0  0  0  0  0
    6.4794   -0.1725    0.1634 C   0  0  0  0  0  0  0  0  0  0  0  0
    5.7719   -1.1501    0.6895 N   0  0  0  0  0  0  0  0  0  0  0  0
    4.4781   -0.7751    0.4371 C   0  0  0  0  0  0  0  0  0  0  0  0
    3.2571   -1.3833    0.7391 C   0  0  0  0  0  0  0  0  0  0  0  0
    2.1004   -0.7306    0.3351 C   0  0  0  0  0  0  0  0  0  0  0  0
    0.8094   -1.1226    0.5134 O   0  0  0  0  0  0  0  0  0  0  0  0
   -2.2679   -1.0404    0.3677 C   0  0  0  0  0  0  0  0  0  0  0  0
   -3.5721   -0.5609    0.0563 C   0  0  0  0  0  0  0  0  0  0  0  0
   -4.8702   -1.0349    0.2804 C   0  0  0  0  0  0  0  0  0  0  0  0
   -5.9451   -0.3289   -0.1508 N   0  0  0  0  0  0  0  0  0  0  0  0
   -6.6497    1.3469   -1.1146 H   0  0  0  0  0  0  0  0  0  0  0  0
   -4.3931    2.3346   -1.5961 H   0  0  0  0  0  0  0  0  0  0  0  0
   -1.6325    1.6943   -1.1473 H   0  0  0  0  0  0  0  0  0  0  0  0
    3.3491    2.0327   -1.1761 H   0  0  0  0  0  0  0  0  0  0  0  0
    7.5553   -0.0680    0.1396 H   0  0  0  0  0  0  0  0  0  0  0  0
    3.2177   -2.3281    1.2683 H   0  0  0  0  0  0  0  0  0  0  0  0
   -2.0263   -1.9573    0.8904 H   0  0  0  0  0  0  0  0  0  0  0  0
   -5.0795   -1.9650    0.7959 H   0  0  0  0  0  0  0  0  0  0  0  0
  1  2  2  0
  2  3  1  0
  3  4  1  0
  4  5  1  0
  5  6  1  0
  6  7  2  0
  7  8  1  0
  8  9  2  0
  9 10  1  0
 10 11  1  0
 11 12  1  0
 12 13  2  0
 13 14  1  0
 14 15  1  0
 15 16  2  0
 16 17  1  0
  5 18  2  0
 18 19  1  0
 19 20  1  0
 20 21  2  0
 21  1  1  0
 19  3  2  0
 17  6  1  0
 16  8  1  0
 14 10  2  0
  1 22  1  0
  2 23  1  0
  4 24  1  0
  9 25  1  0
 12 26  1  0
 15 27  1  0
 18 28  1  0
 20 29  1  0
M  END
