
     RDKit          3D

 34 38  0  0  0  0  0  0  0  0999 V2000
   -4.7795    2.0058    0.6786 C   0  0  0  0  0  0  0  0  0  0  0  0
   -3.4024    1.9766    0.8370 C   0  0  0  0  0  0  0  0  0  0  0  0
   -2.7689    0.8734    0.2692 C   0  0  0  0  0  0  0  0  0  0  0  0
   -1.4409    0.5246    0.2375 N   0  0  0  0  0  0  0  0  0  0  0  0
   -1.2548   -0.6578   -0.4467 C   0  0  0  0  0  0  0  0  0  0  0  0
   -0.0844   -1.3811   -0.7254 C   0  0  0  0  0  0  0  0  0  0  0  0
    1.2416   -0.9339   -0.3044 C   0  0  0  0  0  0  0  0  0  0  0  0
    2.0345   -1.7216    0.5360 C   0  0  0  0  0  0  0  0  0  0  0  0
    3.2989   -1.2806    0.9370 C   0  0  0  0  0  0  0  0  0  0  0  0
    3.8035   -0.0582    0.5180 C   0  0  0  0  0  0  0  0  0  0  0  0
    5.0243    0.3365    0.9297 N   0  0  0  0  0  0  0  0  0  0  0  0
    5.4501    1.5367    0.4804 C   0  0  0  0  0  0  0  0  0  0  0  0
    4.6818    2.3255   -0.3504 C   0  0  0  0  0  0  0  0  0  0  0  0
    3.4538    1.9489   -0.7688 N   0  0  0  0  0  0  0  0  0  0  0  0
    3.0152    0.7506   -0.3362 C   0  0  0  0  0  0  0  0  0  0  0  0
    1.7613    0.2984   -0.7317 C   0  0  0  0  0  0  0  0  0  0  0  0
   -0.3094   -2.5648   -1.4313 C   0  0  0  0  0  0  0  0  0  0  0  0
   -1.5143   -3.0253   -1.8417 N   0  0  0  0  0  0  0  0  0  0  0  0
   -2.6195   -2.2959   -1.5603 C   0  0  0  0  0  0  0  0  0  0  0  0
   -2.5195   -1.0918   -0.8518 C   0  0  0  0  0  0  0  0  0  0  0  0
   -3.4727   -0.1224   -0.4058 C   0  0  0  0  0  0  0  0  0  0  0  0
   -4.8644    0.0012   -0.5090 C   0  0  0  0  0  0  0  0  0  0  0  0
   -5.5052    1.0656    0.0346 N   0  0  0  0  0  0  0  0  0  0  0  0
   -5.3622    2.8279    1.0871 H   0  0  0  0  0  0  0  0  0  0  0  0
   -2.8690    2.7569    1.3638 H   0  0  0  0  0  0  0  0  0  0  0  0
   -0.6967    1.0622    0.6597 H   0  0  0  0  0  0  0  0  0  0  0  0
    1.6735   -2.6835    0.8974 H   0  0  0  0  0  0  0  0  0  0  0  0
    3.9027   -1.9030    1.5934 H   0  0  0  0  0  0  0  0  0  0  0  0
    6.4344    1.8477    0.8108 H   0  0  0  0  0  0  0  0  0  0  0  0
    5.0326    3.2875   -0.7057 H   0  0  0  0  0  0  0  0  0  0  0  0
    1.1823    0.9280   -1.4059 H   0  0  0  0  0  0  0  0  0  0  0  0
    0.5248   -3.2070   -1.7082 H   0  0  0  0  0  0  0  0  0  0  0  0
   -3.5628   -2.7005   -1.9096 H   0  0  0  0  0  0  0  0  0  0  0  0
   -5.4887   -0.7264   -1.0150 H   0  0  0  0  0  0  0  0  0  0  0  0
  1  2  2  0
  2  3  1  0
  3  4  1  0
  4  5  1  0
  5  6  2  0
  6  7  1  0
  7  8  2  0
  8  9  1  0
  9 10  2  0
 10 11  1  0
 11 12  2  0
 12 13  1  0
 13 14  2  0
 14 15  1  0
 15 16  2  0
  6 17  1  0
 17 18  2  0
 18 19  1  0
 19 20  2  0
 20 21  1  0
 21 22  1  0
 22 23  2  0
 23  1  1  0
 21  3  2  0
 20  5  1  0
 16  7  1  0
 15 10  1  0
  1 24  1  0
  2 25  1  0
  4 26  1  0
  8 27  1  0
  9 28  1  0
 12 29  1  0
 13 30  1  0
 16 31  1  0
 17 32  1  0
 19 33  1  0
 22 34  1  0
M  END
