
     RDKit          3D

 32 36  0  0  0  0  0  0  0  0999 V2000
   -4.8255    2.2850   -0.2631 C   0  0  0  0  0  0  0  0  0  0  0  0
   -3.4555    2.3896   -0.0772 C   0  0  0  0  0  0  0  0  0  0  0  0
   -2.7639    1.1805   -0.1103 C   0  0  0  0  0  0  0  0  0  0  0  0
   -1.4230    0.9151    0.0256 N   0  0  0  0  0  0  0  0  0  0  0  0
   -1.1722   -0.4399   -0.0527 C   0  0  0  0  0  0  0  0  0  0  0  0
    0.0279   -1.1686    0.0426 C   0  0  0  0  0  0  0  0  0  0  0  0
    1.3218   -0.5698    0.3422 C   0  0  0  0  0  0  0  0  0  0  0  0
    1.5287    0.3032    1.3990 C   0  0  0  0  0  0  0  0  0  0  0  0
    2.7258    0.8716    1.6622 N   0  0  0  0  0  0  0  0  0  0  0  0
    3.7437    0.5324    0.8619 C   0  0  0  0  0  0  0  0  0  0  0  0
    4.9439    1.0771    1.1011 N   0  0  0  0  0  0  0  0  0  0  0  0
    5.9530    0.7135    0.2838 C   0  0  0  0  0  0  0  0  0  0  0  0
    5.7698   -0.1733   -0.7537 C   0  0  0  0  0  0  0  0  0  0  0  0
    4.5698   -0.7303   -1.0154 N   0  0  0  0  0  0  0  0  0  0  0  0
    3.5516   -0.3854   -0.2164 C   0  0  0  0  0  0  0  0  0  0  0  0
    2.3490   -0.9238   -0.4621 N   0  0  0  0  0  0  0  0  0  0  0  0
   -0.1271   -2.5379   -0.1832 C   0  0  0  0  0  0  0  0  0  0  0  0
   -1.2982   -3.1751   -0.4208 N   0  0  0  0  0  0  0  0  0  0  0  0
   -2.4360   -2.4464   -0.4754 C   0  0  0  0  0  0  0  0  0  0  0  0
   -2.4028   -1.0570   -0.3025 C   0  0  0  0  0  0  0  0  0  0  0  0
   -3.4061   -0.0376   -0.3197 C   0  0  0  0  0  0  0  0  0  0  0  0
   -4.7953   -0.0343   -0.5015 C   0  0  0  0  0  0  0  0  0  0  0  0
   -5.4924    1.1284   -0.4680 N   0  0  0  0  0  0  0  0  0  0  0  0
   -5.4514    3.1742   -0.2528 H   0  0  0  0  0  0  0  0  0  0  0  0
   -2.9705    3.3441    0.0799 H   0  0  0  0  0  0  0  0  0  0  0  0
   -0.7184    1.6291    0.1462 H   0  0  0  0  0  0  0  0  0  0  0  0
    0.7331    0.5701    2.0880 H   0  0  0  0  0  0  0  0  0  0  0  0
    6.9196    1.1596    0.4905 H   0  0  0  0  0  0  0  0  0  0  0  0
    6.5840   -0.4637   -1.4084 H   0  0  0  0  0  0  0  0  0  0  0  0
    0.7398   -3.1977   -0.1657 H   0  0  0  0  0  0  0  0  0  0  0  0
   -3.3493   -2.9978   -0.6698 H   0  0  0  0  0  0  0  0  0  0  0  0
   -5.3739   -0.9348   -0.6734 H   0  0  0  0  0  0  0  0  0  0  0  0
  1  2  2  0
  2  3  1  0
  3  4  1  0
  4  5  1  0
  5  6  2  0
  6  7  1  0
  7  8  2  0
  8  9  1  0
  9 10  2  0
 10 11  1  0
 11 12  2  0
 12 13  1  0
 13 14  2  0
 14 15  1  0
 15 16  2  0
  6 17  1  0
 17 18  2  0
 18 19  1  0
 19 20  2  0
 20 21  1  0
 21 22  1  0
 22 23  2  0
 23  1  1  0
 21  3  2  0
 20  5  1  0
 16  7  1  0
 15 10  1  0
  1 24  1  0
  2 25  1  0
  4 26  1  0
  8 27  1  0
 12 28  1  0
 13 29  1  0
 17 30  1  0
 19 31  1  0
 22 32  1  0
M  END
