
     RDKit          3D

 44 51  0  0  0  0  0  0  0  0999 V2000
    6.9292   -0.2627    0.2835 C   0  0  0  0  0  0  0  0  0  0  0  0
    6.3564    0.8851    0.7894 C   0  0  0  0  0  0  0  0  0  0  0  0
    4.9825    0.6849    0.5417 C   0  0  0  0  0  0  0  0  0  0  0  0
    3.7315    1.2605    0.6914 N   0  0  0  0  0  0  0  0  0  0  0  0
    2.7620    0.4093    0.1652 C   0  0  0  0  0  0  0  0  0  0  0  0
    3.4817   -0.6813   -0.2961 C   0  0  0  0  0  0  0  0  0  0  0  0
    2.8634   -1.7773   -0.9041 C   0  0  0  0  0  0  0  0  0  0  0  0
    3.3406   -2.9353   -1.4243 C   0  0  0  0  0  0  0  0  0  0  0  0
    2.2585   -3.6416   -1.8890 O   0  0  0  0  0  0  0  0  0  0  0  0
    1.1334   -2.8896   -1.6382 C   0  0  0  0  0  0  0  0  0  0  0  0
    1.4675   -1.7048   -1.0183 C   0  0  0  0  0  0  0  0  0  0  0  0
    0.6075   -0.6591   -0.5947 C   0  0  0  0  0  0  0  0  0  0  0  0
   -0.8237   -0.6900   -0.7634 C   0  0  0  0  0  0  0  0  0  0  0  0
   -1.6856    0.3449   -0.3400 C   0  0  0  0  0  0  0  0  0  0  0  0
   -3.1216    0.2950   -0.5180 C   0  0  0  0  0  0  0  0  0  0  0  0
   -3.7751    0.6114   -1.7370 C   0  0  0  0  0  0  0  0  0  0  0  0
   -5.1946    0.5632   -1.9269 C   0  0  0  0  0  0  0  0  0  0  0  0
   -6.1117    0.1903   -0.9217 C   0  0  0  0  0  0  0  0  0  0  0  0
   -5.4688   -0.1270    0.2745 C   0  0  0  0  0  0  0  0  0  0  0  0
   -6.1547   -0.5229    1.3959 C   0  0  0  0  0  0  0  0  0  0  0  0
   -5.0826   -0.8458    2.6999 S   0  0  0  0  0  0  0  0  0  0  0  0
   -3.6975   -0.4560    1.7575 C   0  0  0  0  0  0  0  0  0  0  0  0
   -4.0406   -0.0818    0.4783 C   0  0  0  0  0  0  0  0  0  0  0  0
   -0.9894    1.4136    0.2566 C   0  0  0  0  0  0  0  0  0  0  0  0
   -1.6227    2.5402    0.7333 C   0  0  0  0  0  0  0  0  0  0  0  0
   -0.5169    3.6596    1.4033 S   0  0  0  0  0  0  0  0  0  0  0  0
    0.8244    2.6454    1.0532 C   0  0  0  0  0  0  0  0  0  0  0  0
    0.4585    1.4697    0.4384 C   0  0  0  0  0  0  0  0  0  0  0  0
    1.3417    0.4454    0.0296 C   0  0  0  0  0  0  0  0  0  0  0  0
    4.8256   -0.5124   -0.0675 C   0  0  0  0  0  0  0  0  0  0  0  0
    6.0176   -1.1320   -0.2451 O   0  0  0  0  0  0  0  0  0  0  0  0
    7.9544   -0.6040    0.2257 H   0  0  0  0  0  0  0  0  0  0  0  0
    6.8595    1.7184    1.2562 H   0  0  0  0  0  0  0  0  0  0  0  0
    3.6011    2.1629    1.1248 H   0  0  0  0  0  0  0  0  0  0  0  0
    4.3089   -3.3983   -1.5485 H   0  0  0  0  0  0  0  0  0  0  0  0
    0.2083   -3.3453   -1.9613 H   0  0  0  0  0  0  0  0  0  0  0  0
   -1.2777   -1.5599   -1.2386 H   0  0  0  0  0  0  0  0  0  0  0  0
   -3.1641    0.9165   -2.5886 H   0  0  0  0  0  0  0  0  0  0  0  0
   -5.5862    0.8314   -2.9090 H   0  0  0  0  0  0  0  0  0  0  0  0
   -7.1806    0.1596   -1.0856 H   0  0  0  0  0  0  0  0  0  0  0  0
   -7.2204   -0.6447    1.5327 H   0  0  0  0  0  0  0  0  0  0  0  0
   -2.7156   -0.5254    2.2058 H   0  0  0  0  0  0  0  0  0  0  0  0
   -2.6782    2.7777    0.7316 H   0  0  0  0  0  0  0  0  0  0  0  0
    1.7941    3.0123    1.3367 H   0  0  0  0  0  0  0  0  0  0  0  0
  1  2  2  0
  2  3  1  0
  3  4  1  0
  4  5  1  0
  5  6  2  0
  6  7  1  0
  7  8  2  0
  8  9  1  0
  9 10  1  0
 10 11  2  0
 11 12  1  0
 12 13  1  0
 13 14  2  0
 14 15  1  0
 15 16  2  0
 16 17  1  0
 17 18  2  0
 18 19  1  0
 19 20  2  0
 20 21  1  0
 21 22  1  0
 22 23  2  0
 14 24  1  0
 24 25  2  0
 25 26  1  0
 26 27  1  0
 27 28  2  0
 28 29  1  0
  6 30  1  0
 30 31  1  0
 31  1  1  0
 30  3  2  0
 29  5  1  0
 11  7  1  0
 29 12  2  0
 23 15  1  0
 28 24  1  0
 23 19  1  0
  1 32  1  0
  2 33  1  0
  4 34  1  0
  8 35  1  0
 10 36  1  0
 13 37  1  0
 16 38  1  0
 17 39  1  0
 18 40  1  0
 20 41  1  0
 22 42  1  0
 25 43  1  0
 27 44  1  0
M  END
