
     RDKit          3D

 26 29  0  0  0  0  0  0  0  0999 V2000
    3.8548    0.2241    1.7342 C   0  0  0  0  0  0  0  0  0  0  0  0
    2.5299    0.5634    1.9612 C   0  0  0  0  0  0  0  0  0  0  0  0
    1.6484    0.1993    0.9462 C   0  0  0  0  0  0  0  0  0  0  0  0
    0.2923    0.3732    0.8357 N   0  0  0  0  0  0  0  0  0  0  0  0
   -0.1809   -0.1462   -0.3496 C   0  0  0  0  0  0  0  0  0  0  0  0
   -1.4822   -0.1877   -0.8676 C   0  0  0  0  0  0  0  0  0  0  0  0
   -2.5963    0.3783   -0.1217 C   0  0  0  0  0  0  0  0  0  0  0  0
   -3.9100    0.3817   -0.5549 C   0  0  0  0  0  0  0  0  0  0  0  0
   -4.9219    1.1406    0.6063 S   0  0  0  0  0  0  0  0  0  0  0  0
   -3.5507    1.4085    1.5951 C   0  0  0  0  0  0  0  0  0  0  0  0
   -2.4016    0.9757    1.1244 N   0  0  0  0  0  0  0  0  0  0  0  0
   -1.5739   -0.8025   -2.1136 C   0  0  0  0  0  0  0  0  0  0  0  0
   -0.5368   -1.3307   -2.8105 N   0  0  0  0  0  0  0  0  0  0  0  0
    0.7075   -1.2713   -2.2763 C   0  0  0  0  0  0  0  0  0  0  0  0
    0.9187   -0.6751   -1.0269 C   0  0  0  0  0  0  0  0  0  0  0  0
    2.0732   -0.4569   -0.2089 C   0  0  0  0  0  0  0  0  0  0  0  0
    3.4360   -0.7542   -0.3402 C   0  0  0  0  0  0  0  0  0  0  0  0
    4.3152   -0.4106    0.6336 N   0  0  0  0  0  0  0  0  0  0  0  0
    4.6174    0.4671    2.4701 H   0  0  0  0  0  0  0  0  0  0  0  0
    2.2126    1.0726    2.8616 H   0  0  0  0  0  0  0  0  0  0  0  0
   -0.3118    0.8197    1.5160 H   0  0  0  0  0  0  0  0  0  0  0  0
   -4.3373   -0.0074   -1.4672 H   0  0  0  0  0  0  0  0  0  0  0  0
   -3.6342    1.9068    2.5523 H   0  0  0  0  0  0  0  0  0  0  0  0
   -2.5255   -0.9015   -2.6281 H   0  0  0  0  0  0  0  0  0  0  0  0
    1.5056   -1.7057   -2.8678 H   0  0  0  0  0  0  0  0  0  0  0  0
    3.8516   -1.2612   -1.2033 H   0  0  0  0  0  0  0  0  0  0  0  0
  1  2  2  0
  2  3  1  0
  3  4  1  0
  4  5  1  0
  5  6  2  0
  6  7  1  0
  7  8  2  0
  8  9  1  0
  9 10  1  0
 10 11  2  0
  6 12  1  0
 12 13  2  0
 13 14  1  0
 14 15  2  0
 15 16  1  0
 16 17  1  0
 17 18  2  0
 18  1  1  0
 16  3  2  0
 15  5  1  0
 11  7  1  0
  1 19  1  0
  2 20  1  0
  4 21  1  0
  8 22  1  0
 10 23  1  0
 12 24  1  0
 14 25  1  0
 17 26  1  0
M  END
