
     RDKit          3D

 36 41  0  0  0  0  0  0  0  0999 V2000
    6.3903    0.4321   -0.1078 C   0  0  0  0  0  0  0  0  0  0  0  0
    5.7518   -0.7102   -0.5526 C   0  0  0  0  0  0  0  0  0  0  0  0
    4.3738   -0.4457   -0.3663 C   0  0  0  0  0  0  0  0  0  0  0  0
    3.1370   -0.9997   -0.5308 N   0  0  0  0  0  0  0  0  0  0  0  0
    2.1874   -0.0917   -0.0994 C   0  0  0  0  0  0  0  0  0  0  0  0
    2.8414    1.0615    0.3500 C   0  0  0  0  0  0  0  0  0  0  0  0
    2.0915    2.1397    0.8452 C   0  0  0  0  0  0  0  0  0  0  0  0
    0.6922    2.0414    0.8803 C   0  0  0  0  0  0  0  0  0  0  0  0
    0.0201    0.8965    0.4332 C   0  0  0  0  0  0  0  0  0  0  0  0
   -1.3969    0.8301    0.4804 C   0  0  0  0  0  0  0  0  0  0  0  0
   -2.1887   -0.2727    0.0486 C   0  0  0  0  0  0  0  0  0  0  0  0
   -3.6545   -0.2576    0.1379 C   0  0  0  0  0  0  0  0  0  0  0  0
   -4.4992   -0.8603   -0.7939 C   0  0  0  0  0  0  0  0  0  0  0  0
   -5.8809   -0.7738   -0.6263 C   0  0  0  0  0  0  0  0  0  0  0  0
   -6.3933   -0.0828    0.4617 C   0  0  0  0  0  0  0  0  0  0  0  0
   -5.4977    0.5017    1.3369 C   0  0  0  0  0  0  0  0  0  0  0  0
   -4.1549    0.4367    1.1954 N   0  0  0  0  0  0  0  0  0  0  0  0
   -1.4449   -1.3856   -0.4461 C   0  0  0  0  0  0  0  0  0  0  0  0
   -1.9361   -2.5579   -0.8911 N   0  0  0  0  0  0  0  0  0  0  0  0
   -0.6518   -3.4984   -1.3355 S   0  0  0  0  0  0  0  0  0  0  0  0
    0.6070   -2.4782   -1.0037 N   0  0  0  0  0  0  0  0  0  0  0  0
    0.0723   -1.3447   -0.5067 C   0  0  0  0  0  0  0  0  0  0  0  0
    0.7848   -0.1932   -0.0662 C   0  0  0  0  0  0  0  0  0  0  0  0
    4.2228    0.7942    0.1624 C   0  0  0  0  0  0  0  0  0  0  0  0
    5.4626    1.3486    0.3281 N   0  0  0  0  0  0  0  0  0  0  0  0
    7.4446    0.6724   -0.0641 H   0  0  0  0  0  0  0  0  0  0  0  0
    6.2170   -1.6008   -0.9515 H   0  0  0  0  0  0  0  0  0  0  0  0
    2.9594   -1.9231   -0.9066 H   0  0  0  0  0  0  0  0  0  0  0  0
    2.5833    3.0407    1.1992 H   0  0  0  0  0  0  0  0  0  0  0  0
    0.1294    2.8886    1.2699 H   0  0  0  0  0  0  0  0  0  0  0  0
   -1.9355    1.6951    0.8789 H   0  0  0  0  0  0  0  0  0  0  0  0
   -4.1037   -1.3892   -1.6549 H   0  0  0  0  0  0  0  0  0  0  0  0
   -6.5475   -1.2440   -1.3436 H   0  0  0  0  0  0  0  0  0  0  0  0
   -7.4620    0.0005    0.6220 H   0  0  0  0  0  0  0  0  0  0  0  0
   -5.8440    1.0570    2.2039 H   0  0  0  0  0  0  0  0  0  0  0  0
    5.6229    2.2729    0.7083 H   0  0  0  0  0  0  0  0  0  0  0  0
  1  2  2  0
  2  3  1  0
  3  4  1  0
  4  5  1  0
  5  6  2  0
  6  7  1  0
  7  8  2  0
  8  9  1  0
  9 10  1  0
 10 11  2  0
 11 12  1  0
 12 13  2  0
 13 14  1  0
 14 15  2  0
 15 16  1  0
 16 17  2  0
 11 18  1  0
 18 19  2  0
 19 20  1  0
 20 21  1  0
 21 22  2  0
 22 23  1  0
  6 24  1  0
 24 25  1  0
 25  1  1  0
 24  3  2  0
 23  5  1  0
 23  9  2  0
 17 12  1  0
 22 18  1  0
  1 26  1  0
  2 27  1  0
  4 28  1  0
  7 29  1  0
  8 30  1  0
 10 31  1  0
 13 32  1  0
 14 33  1  0
 15 34  1  0
 16 35  1  0
 25 36  1  0
M  END
