
     RDKit          3D

 41 47  0  0  0  0  0  0  0  0999 V2000
   -4.0038   -3.4218   -1.1241 Si  0  0  0  0  0  4  0  0  0  0  0  0
   -4.8864   -1.7931   -0.8512 C   0  0  0  0  0  0  0  0  0  0  0  0
   -4.0197   -0.8197   -0.5044 C   0  0  0  0  0  0  0  0  0  0  0  0
   -4.3742    0.5796   -0.2175 C   0  0  0  0  0  0  0  0  0  0  0  0
   -5.7009    1.2051   -0.2431 C   0  0  0  0  0  0  0  0  0  0  0  0
   -5.7289    2.5161    0.0656 C   0  0  0  0  0  0  0  0  0  0  0  0
   -3.9951    3.1592    0.4470 Si  0  0  0  0  0  4  0  0  0  0  0  0
   -3.3844    1.4511    0.1204 C   0  0  0  0  0  0  0  0  0  0  0  0
   -2.0344    1.0186    0.1950 C   0  0  0  0  0  0  0  0  0  0  0  0
   -0.9430    1.7858    0.5213 O   0  0  0  0  0  0  0  0  0  0  0  0
    0.1326    0.9448    0.4623 C   0  0  0  0  0  0  0  0  0  0  0  0
    1.5071    1.1427    0.6890 C   0  0  0  0  0  0  0  0  0  0  0  0
    2.1752   -0.0529    0.4877 C   0  0  0  0  0  0  0  0  0  0  0  0
    1.1293   -1.3619    0.0479 S   0  0  0  0  0  0  0  0  0  0  0  0
   -0.2433   -0.3111    0.1149 C   0  0  0  0  0  0  0  0  0  0  0  0
   -1.6383   -0.2873   -0.0638 C   0  0  0  0  0  0  0  0  0  0  0  0
   -2.5949   -1.2750   -0.4253 C   0  0  0  0  0  0  0  0  0  0  0  0
   -2.3922   -2.5744   -0.7092 C   0  0  0  0  0  0  0  0  0  0  0  0
    3.6013   -0.3143    0.6051 C   0  0  0  0  0  0  0  0  0  0  0  0
    4.1677   -1.1860    1.5675 C   0  0  0  0  0  0  0  0  0  0  0  0
    5.5740   -1.4244    1.6985 C   0  0  0  0  0  0  0  0  0  0  0  0
    6.5556   -0.8182    0.8853 C   0  0  0  0  0  0  0  0  0  0  0  0
    5.9931    0.0372   -0.0627 C   0  0  0  0  0  0  0  0  0  0  0  0
    6.7554    0.7323   -0.9685 C   0  0  0  0  0  0  0  0  0  0  0  0
    5.7726    1.6839   -2.0081 S   0  0  0  0  0  0  0  0  0  0  0  0
    4.3234    1.1593   -1.2435 C   0  0  0  0  0  0  0  0  0  0  0  0
    4.5775    0.2891   -0.2078 C   0  0  0  0  0  0  0  0  0  0  0  0
   -4.3841   -4.4412   -0.1173 H   0  0  0  0  0  0  0  0  0  0  0  0
   -4.0657   -3.8632   -2.5379 H   0  0  0  0  0  0  0  0  0  0  0  0
   -5.9542   -1.7135   -0.9732 H   0  0  0  0  0  0  0  0  0  0  0  0
   -6.5856    0.6349   -0.4954 H   0  0  0  0  0  0  0  0  0  0  0  0
   -6.5922    3.1609    0.1055 H   0  0  0  0  0  0  0  0  0  0  0  0
   -3.5810    4.1694   -0.5600 H   0  0  0  0  0  0  0  0  0  0  0  0
   -3.9003    3.5915    1.8647 H   0  0  0  0  0  0  0  0  0  0  0  0
    1.9708    2.0768    0.9755 H   0  0  0  0  0  0  0  0  0  0  0  0
   -1.4567   -3.1096   -0.7146 H   0  0  0  0  0  0  0  0  0  0  0  0
    3.5027   -1.7058    2.2587 H   0  0  0  0  0  0  0  0  0  0  0  0
    5.9029   -2.1154    2.4757 H   0  0  0  0  0  0  0  0  0  0  0  0
    7.6135   -1.0135    1.0015 H   0  0  0  0  0  0  0  0  0  0  0  0
    7.8299    0.7387   -1.0887 H   0  0  0  0  0  0  0  0  0  0  0  0
    3.3746    1.5251   -1.6107 H   0  0  0  0  0  0  0  0  0  0  0  0
  1  2  1  0
  2  3  2  0
  3  4  1  0
  4  5  1  0
  5  6  2  0
  6  7  1  0
  7  8  1  0
  8  9  1  0
  9 10  1  0
 10 11  1  0
 11 12  1  0
 12 13  2  0
 13 14  1  0
 14 15  1  0
 15 16  1  0
 16 17  1  0
 17 18  2  0
 13 19  1  0
 19 20  2  0
 20 21  1  0
 21 22  2  0
 22 23  1  0
 23 24  2  0
 24 25  1  0
 25 26  1  0
 26 27  2  0
 18  1  1  0
 27 19  1  0
 17  3  1  0
 27 23  1  0
  8  4  2  0
 16  9  2  0
 15 11  2  0
  1 28  1  0
  1 29  1  0
  2 30  1  0
  5 31  1  0
  6 32  1  0
  7 33  1  0
  7 34  1  0
 12 35  1  0
 18 36  1  0
 20 37  1  0
 21 38  1  0
 22 39  1  0
 24 40  1  0
 26 41  1  0
M  END
