
     RDKit          3D

 37 42  0  0  0  0  0  0  0  0999 V2000
    6.9658    0.4819   -2.0089 C   0  0  0  0  0  0  0  0  0  0  0  0
    5.8489    0.0685   -2.7190 C   0  0  0  0  0  0  0  0  0  0  0  0
    4.6560    0.0828   -1.9993 C   0  0  0  0  0  0  0  0  0  0  0  0
    3.3790   -0.2565   -2.3786 N   0  0  0  0  0  0  0  0  0  0  0  0
    2.4997   -0.0877   -1.3352 C   0  0  0  0  0  0  0  0  0  0  0  0
    1.1234   -0.3056   -1.2651 C   0  0  0  0  0  0  0  0  0  0  0  0
    0.5385   -0.0280   -0.0349 C   0  0  0  0  0  0  0  0  0  0  0  0
   -0.8912   -0.2029    0.2049 C   0  0  0  0  0  0  0  0  0  0  0  0
   -1.9340   -0.6323   -0.5989 C   0  0  0  0  0  0  0  0  0  0  0  0
   -3.1352   -0.6058    0.1650 C   0  0  0  0  0  0  0  0  0  0  0  0
   -4.4782   -0.9233   -0.1062 C   0  0  0  0  0  0  0  0  0  0  0  0
   -5.4548   -0.7860    0.8900 C   0  0  0  0  0  0  0  0  0  0  0  0
   -6.8549   -0.9998    0.9872 C   0  0  0  0  0  0  0  0  0  0  0  0
   -7.2111   -0.6648    2.2742 C   0  0  0  0  0  0  0  0  0  0  0  0
   -6.1248   -0.2572    2.9825 O   0  0  0  0  0  0  0  0  0  0  0  0
   -5.0586   -0.3312    2.1408 C   0  0  0  0  0  0  0  0  0  0  0  0
   -3.7457   -0.0086    2.4459 C   0  0  0  0  0  0  0  0  0  0  0  0
   -2.7941   -0.1535    1.4388 C   0  0  0  0  0  0  0  0  0  0  0  0
   -1.4429    0.0809    1.4361 N   0  0  0  0  0  0  0  0  0  0  0  0
    1.2194    0.4246    1.0478 N   0  0  0  0  0  0  0  0  0  0  0  0
    2.5572    0.6282    0.9531 C   0  0  0  0  0  0  0  0  0  0  0  0
    3.2348    0.3764   -0.2456 C   0  0  0  0  0  0  0  0  0  0  0  0
    4.5980    0.4844   -0.6646 C   0  0  0  0  0  0  0  0  0  0  0  0
    5.7858    0.8843   -0.0386 C   0  0  0  0  0  0  0  0  0  0  0  0
    6.9596    0.8792   -0.7176 N   0  0  0  0  0  0  0  0  0  0  0  0
    7.9427    0.5049   -2.4858 H   0  0  0  0  0  0  0  0  0  0  0  0
    5.9102   -0.2402   -3.7542 H   0  0  0  0  0  0  0  0  0  0  0  0
    3.1221   -0.5850   -3.2986 H   0  0  0  0  0  0  0  0  0  0  0  0
    0.5551   -0.6657   -2.1118 H   0  0  0  0  0  0  0  0  0  0  0  0
   -1.8527   -0.9373   -1.6333 H   0  0  0  0  0  0  0  0  0  0  0  0
   -4.7591   -1.2769   -1.0942 H   0  0  0  0  0  0  0  0  0  0  0  0
   -7.5215   -1.3542    0.2145 H   0  0  0  0  0  0  0  0  0  0  0  0
   -8.1469   -0.6608    2.8153 H   0  0  0  0  0  0  0  0  0  0  0  0
   -3.4794    0.3434    3.4365 H   0  0  0  0  0  0  0  0  0  0  0  0
   -0.8945    0.4172    2.2169 H   0  0  0  0  0  0  0  0  0  0  0  0
    3.0522    0.9901    1.8471 H   0  0  0  0  0  0  0  0  0  0  0  0
    5.8314    1.2108    0.9940 H   0  0  0  0  0  0  0  0  0  0  0  0
  1  2  2  0
  2  3  1  0
  3  4  1  0
  4  5  1  0
  5  6  2  0
  6  7  1  0
  7  8  1  0
  8  9  2  0
  9 10  1  0
 10 11  2  0
 11 12  1  0
 12 13  1  0
 13 14  2  0
 14 15  1  0
 15 16  1  0
 16 17  1  0
 17 18  2  0
 18 19  1  0
  7 20  2  0
 20 21  1  0
 21 22  2  0
 22 23  1  0
 23 24  1  0
 24 25  2  0
 25  1  1  0
 23  3  2  0
 22  5  1  0
 19  8  1  0
 18 10  1  0
 16 12  2  0
  1 26  1  0
  2 27  1  0
  4 28  1  0
  6 29  1  0
  9 30  1  0
 11 31  1  0
 13 32  1  0
 14 33  1  0
 17 34  1  0
 19 35  1  0
 21 36  1  0
 24 37  1  0
M  END
