
     RDKit          3D

 35 40  0  0  0  0  0  0  0  0999 V2000
   -6.9609   -0.6252   -0.1223 C   0  0  0  0  0  0  0  0  0  0  0  0
   -6.1485    0.3744    0.3910 C   0  0  0  0  0  0  0  0  0  0  0  0
   -4.7810    0.1609    0.2311 C   0  0  0  0  0  0  0  0  0  0  0  0
   -3.7059    0.9289    0.6108 N   0  0  0  0  0  0  0  0  0  0  0  0
   -2.5244    0.3270    0.2471 C   0  0  0  0  0  0  0  0  0  0  0  0
   -1.2038    0.7397    0.4268 C   0  0  0  0  0  0  0  0  0  0  0  0
   -0.2376   -0.1261   -0.0723 C   0  0  0  0  0  0  0  0  0  0  0  0
    1.1909    0.1542    0.0324 C   0  0  0  0  0  0  0  0  0  0  0  0
    1.9030    1.2140    0.5816 C   0  0  0  0  0  0  0  0  0  0  0  0
    3.2795    0.9549    0.3967 C   0  0  0  0  0  0  0  0  0  0  0  0
    4.3821    1.6700    0.7469 N   0  0  0  0  0  0  0  0  0  0  0  0
    5.5667    1.0974    0.3989 C   0  0  0  0  0  0  0  0  0  0  0  0
    6.9012    1.5149    0.5809 C   0  0  0  0  0  0  0  0  0  0  0  0
    7.6846    0.5276    0.0221 C   0  0  0  0  0  0  0  0  0  0  0  0
    6.9177   -0.4738   -0.4938 O   0  0  0  0  0  0  0  0  0  0  0  0
    5.6210   -0.1280   -0.2647 C   0  0  0  0  0  0  0  0  0  0  0  0
    4.5439   -0.8564   -0.6230 N   0  0  0  0  0  0  0  0  0  0  0  0
    3.3881   -0.2625   -0.2644 C   0  0  0  0  0  0  0  0  0  0  0  0
    2.1266   -0.7305   -0.4760 N   0  0  0  0  0  0  0  0  0  0  0  0
   -0.5122   -1.2977   -0.6962 N   0  0  0  0  0  0  0  0  0  0  0  0
   -1.8050   -1.6762   -0.8584 C   0  0  0  0  0  0  0  0  0  0  0  0
   -2.8488   -0.8703   -0.3890 C   0  0  0  0  0  0  0  0  0  0  0  0
   -4.2750   -0.9760   -0.3995 C   0  0  0  0  0  0  0  0  0  0  0  0
   -5.1826   -1.9270   -0.8836 C   0  0  0  0  0  0  0  0  0  0  0  0
   -6.5183   -1.7421   -0.7401 N   0  0  0  0  0  0  0  0  0  0  0  0
   -8.0427   -0.5478   -0.0452 H   0  0  0  0  0  0  0  0  0  0  0  0
   -6.5563    1.2506    0.8776 H   0  0  0  0  0  0  0  0  0  0  0  0
   -3.7756    1.8147    1.0915 H   0  0  0  0  0  0  0  0  0  0  0  0
   -0.9555    1.6694    0.9208 H   0  0  0  0  0  0  0  0  0  0  0  0
    1.4871    2.0859    1.0660 H   0  0  0  0  0  0  0  0  0  0  0  0
    7.2453    2.4198    1.0583 H   0  0  0  0  0  0  0  0  0  0  0  0
    8.7523    0.3927   -0.0857 H   0  0  0  0  0  0  0  0  0  0  0  0
    1.8898   -1.5984   -0.9371 H   0  0  0  0  0  0  0  0  0  0  0  0
   -1.9689   -2.6214   -1.3636 H   0  0  0  0  0  0  0  0  0  0  0  0
   -4.8767   -2.8378   -1.3855 H   0  0  0  0  0  0  0  0  0  0  0  0
  1  2  2  0
  2  3  1  0
  3  4  1  0
  4  5  1  0
  5  6  2  0
  6  7  1  0
  7  8  1  0
  8  9  2  0
  9 10  1  0
 10 11  2  0
 11 12  1  0
 12 13  1  0
 13 14  2  0
 14 15  1  0
 15 16  1  0
 16 17  1  0
 17 18  2  0
 18 19  1  0
  7 20  2  0
 20 21  1  0
 21 22  2  0
 22 23  1  0
 23 24  1  0
 24 25  2  0
 25  1  1  0
 23  3  2  0
 22  5  1  0
 19  8  1  0
 18 10  1  0
 16 12  2  0
  1 26  1  0
  2 27  1  0
  4 28  1  0
  6 29  1  0
  9 30  1  0
 13 31  1  0
 14 32  1  0
 19 33  1  0
 21 34  1  0
 24 35  1  0
M  END
