
     RDKit          3D

 34 39  0  0  0  0  0  0  0  0999 V2000
   -6.8651   -0.3022    0.0537 C   0  0  0  0  0  0  0  0  0  0  0  0
   -5.8571   -1.1369    0.5118 C   0  0  0  0  0  0  0  0  0  0  0  0
   -4.5624   -0.6739    0.2866 C   0  0  0  0  0  0  0  0  0  0  0  0
   -3.3461   -1.2320    0.6013 N   0  0  0  0  0  0  0  0  0  0  0  0
   -2.3163   -0.4203    0.1872 C   0  0  0  0  0  0  0  0  0  0  0  0
   -0.9340   -0.5816    0.2942 C   0  0  0  0  0  0  0  0  0  0  0  0
   -0.1586    0.4480   -0.2394 C   0  0  0  0  0  0  0  0  0  0  0  0
    1.3095    0.4119   -0.1974 C   0  0  0  0  0  0  0  0  0  0  0  0
    2.1964    1.2881   -0.6480 N   0  0  0  0  0  0  0  0  0  0  0  0
    3.4071    0.7339   -0.3354 C   0  0  0  0  0  0  0  0  0  0  0  0
    4.7145    1.1773   -0.5500 C   0  0  0  0  0  0  0  0  0  0  0  0
    5.7468    0.3644   -0.1031 C   0  0  0  0  0  0  0  0  0  0  0  0
    7.0902    0.5791   -0.1959 O   0  0  0  0  0  0  0  0  0  0  0  0
    7.6304   -0.5244    0.3974 C   0  0  0  0  0  0  0  0  0  0  0  0
    6.7667   -1.4079    0.8522 N   0  0  0  0  0  0  0  0  0  0  0  0
    5.5533   -0.8524    0.5389 C   0  0  0  0  0  0  0  0  0  0  0  0
    4.2454   -1.2947    0.7530 C   0  0  0  0  0  0  0  0  0  0  0  0
    3.2137   -0.4807    0.3054 C   0  0  0  0  0  0  0  0  0  0  0  0
    1.8726   -0.6978    0.3996 O   0  0  0  0  0  0  0  0  0  0  0  0
   -0.6905    1.5491   -0.8312 N   0  0  0  0  0  0  0  0  0  0  0  0
   -2.0362    1.6849   -0.9242 C   0  0  0  0  0  0  0  0  0  0  0  0
   -2.8880    0.6990   -0.4149 C   0  0  0  0  0  0  0  0  0  0  0  0
   -4.3078    0.5397   -0.3526 C   0  0  0  0  0  0  0  0  0  0  0  0
   -5.3988    1.3090   -0.7774 C   0  0  0  0  0  0  0  0  0  0  0  0
   -6.6683    0.8799   -0.5697 N   0  0  0  0  0  0  0  0  0  0  0  0
   -7.9088   -0.5782    0.1838 H   0  0  0  0  0  0  0  0  0  0  0  0
   -6.0710   -2.0755    1.0059 H   0  0  0  0  0  0  0  0  0  0  0  0
   -3.2270   -2.1177    1.0726 H   0  0  0  0  0  0  0  0  0  0  0  0
   -0.4945   -1.4535    0.7631 H   0  0  0  0  0  0  0  0  0  0  0  0
    4.9106    2.1202   -1.0467 H   0  0  0  0  0  0  0  0  0  0  0  0
    8.7100   -0.5678    0.4372 H   0  0  0  0  0  0  0  0  0  0  0  0
    4.0485   -2.2372    1.2495 H   0  0  0  0  0  0  0  0  0  0  0  0
   -2.3934    2.5872   -1.4080 H   0  0  0  0  0  0  0  0  0  0  0  0
   -5.2919    2.2629   -1.2813 H   0  0  0  0  0  0  0  0  0  0  0  0
  1  2  2  0
  2  3  1  0
  3  4  1  0
  4  5  1  0
  5  6  2  0
  6  7  1  0
  7  8  1  0
  8  9  2  0
  9 10  1  0
 10 11  2  0
 11 12  1  0
 12 13  1  0
 13 14  1  0
 14 15  2  0
 15 16  1  0
 16 17  1  0
 17 18  2  0
 18 19  1  0
  7 20  2  0
 20 21  1  0
 21 22  2  0
 22 23  1  0
 23 24  1  0
 24 25  2  0
 25  1  1  0
 23  3  2  0
 22  5  1  0
 19  8  1  0
 18 10  1  0
 16 12  2  0
  1 26  1  0
  2 27  1  0
  4 28  1  0
  6 29  1  0
 11 30  1  0
 14 31  1  0
 17 32  1  0
 21 33  1  0
 24 34  1  0
M  END
