
     RDKit          3D

 34 39  0  0  0  0  0  0  0  0999 V2000
   -6.8767   -0.5153    0.0353 C   0  0  0  0  0  0  0  0  0  0  0  0
   -5.9856   -0.3515   -1.0143 C   0  0  0  0  0  0  0  0  0  0  0  0
   -4.6445   -0.2862   -0.6425 C   0  0  0  0  0  0  0  0  0  0  0  0
   -3.5120   -0.1309   -1.4062 N   0  0  0  0  0  0  0  0  0  0  0  0
   -2.3891   -0.1210   -0.6135 C   0  0  0  0  0  0  0  0  0  0  0  0
   -1.0441    0.0106   -0.9529 C   0  0  0  0  0  0  0  0  0  0  0  0
   -0.1566   -0.0227    0.1164 C   0  0  0  0  0  0  0  0  0  0  0  0
    1.2828    0.1044   -0.0988 C   0  0  0  0  0  0  0  0  0  0  0  0
    1.9168    0.2590   -1.2537 N   0  0  0  0  0  0  0  0  0  0  0  0
    3.2434    0.3274   -0.9272 C   0  0  0  0  0  0  0  0  0  0  0  0
    4.2916    0.4839   -1.7722 N   0  0  0  0  0  0  0  0  0  0  0  0
    5.5016    0.5173   -1.1624 C   0  0  0  0  0  0  0  0  0  0  0  0
    6.7304    0.6631   -1.7481 N   0  0  0  0  0  0  0  0  0  0  0  0
    7.5850    0.6335   -0.7453 C   0  0  0  0  0  0  0  0  0  0  0  0
    6.9602    0.4746    0.4645 N   0  0  0  0  0  0  0  0  0  0  0  0
    5.6232    0.3979    0.2195 C   0  0  0  0  0  0  0  0  0  0  0  0
    4.6096    0.2410    1.0955 N   0  0  0  0  0  0  0  0  0  0  0  0
    3.4266    0.2133    0.4469 C   0  0  0  0  0  0  0  0  0  0  0  0
    2.1750    0.0730    0.9537 N   0  0  0  0  0  0  0  0  0  0  0  0
   -0.5223   -0.1708    1.4168 N   0  0  0  0  0  0  0  0  0  0  0  0
   -1.8402   -0.2968    1.7172 C   0  0  0  0  0  0  0  0  0  0  0  0
   -2.8103   -0.2751    0.7067 C   0  0  0  0  0  0  0  0  0  0  0  0
   -4.2368   -0.3796    0.6886 C   0  0  0  0  0  0  0  0  0  0  0  0
   -5.2188   -0.5443    1.6742 C   0  0  0  0  0  0  0  0  0  0  0  0
   -6.5305   -0.6106    1.3378 N   0  0  0  0  0  0  0  0  0  0  0  0
   -7.9453   -0.5771   -0.1561 H   0  0  0  0  0  0  0  0  0  0  0  0
   -6.3171   -0.2806   -2.0419 H   0  0  0  0  0  0  0  0  0  0  0  0
   -3.5048   -0.0369   -2.4124 H   0  0  0  0  0  0  0  0  0  0  0  0
   -0.7049    0.1309   -1.9754 H   0  0  0  0  0  0  0  0  0  0  0  0
    8.6604    0.7216   -0.8315 H   0  0  0  0  0  0  0  0  0  0  0  0
    7.3959    0.4226    1.3728 H   0  0  0  0  0  0  0  0  0  0  0  0
    1.9145   -0.0365    1.9227 H   0  0  0  0  0  0  0  0  0  0  0  0
   -2.0858   -0.4127    2.7670 H   0  0  0  0  0  0  0  0  0  0  0  0
   -4.9915   -0.6256    2.7309 H   0  0  0  0  0  0  0  0  0  0  0  0
  1  2  2  0
  2  3  1  0
  3  4  1  0
  4  5  1  0
  5  6  2  0
  6  7  1  0
  7  8  1  0
  8  9  2  0
  9 10  1  0
 10 11  2  0
 11 12  1  0
 12 13  1  0
 13 14  2  0
 14 15  1  0
 15 16  1  0
 16 17  1  0
 17 18  2  0
 18 19  1  0
  7 20  2  0
 20 21  1  0
 21 22  2  0
 22 23  1  0
 23 24  1  0
 24 25  2  0
 25  1  1  0
 23  3  2  0
 22  5  1  0
 19  8  1  0
 18 10  1  0
 16 12  2  0
  1 26  1  0
  2 27  1  0
  4 28  1  0
  6 29  1  0
 14 30  1  0
 15 31  1  0
 19 32  1  0
 21 33  1  0
 24 34  1  0
M  END
