
     RDKit          3D

 26 29  0  0  0  0  0  0  0  0999 V2000
    1.5691   -1.0567    0.2781 C   0  0  0  0  0  0  0  0  0  0  0  0
    2.9647   -1.0069    0.1429 C   0  0  0  0  0  0  0  0  0  0  0  0
    3.4876    0.1602   -0.4090 C   0  0  0  0  0  0  0  0  0  0  0  0
    4.7565    0.5788   -0.6945 N   0  0  0  0  0  0  0  0  0  0  0  0
    4.7699    1.8084   -1.2346 N   0  0  0  0  0  0  0  0  0  0  0  0
    3.5108    2.2224   -1.3109 N   0  0  0  0  0  0  0  0  0  0  0  0
    2.7064    1.2323   -0.8128 C   0  0  0  0  0  0  0  0  0  0  0  0
    1.3134    1.1645   -0.6685 C   0  0  0  0  0  0  0  0  0  0  0  0
    0.7302    0.0055   -0.1164 C   0  0  0  0  0  0  0  0  0  0  0  0
   -0.7324   -0.0917    0.0443 C   0  0  0  0  0  0  0  0  0  0  0  0
   -1.5925    0.1344   -1.0497 C   0  0  0  0  0  0  0  0  0  0  0  0
   -2.9890    0.0519   -0.9419 C   0  0  0  0  0  0  0  0  0  0  0  0
   -3.4904   -0.2700    0.3171 C   0  0  0  0  0  0  0  0  0  0  0  0
   -4.7529   -0.4394    0.8112 N   0  0  0  0  0  0  0  0  0  0  0  0
   -4.7431   -0.7538    2.1168 N   0  0  0  0  0  0  0  0  0  0  0  0
   -3.4745   -0.7936    2.5063 N   0  0  0  0  0  0  0  0  0  0  0  0
   -2.6879   -0.5019    1.4239 C   0  0  0  0  0  0  0  0  0  0  0  0
   -1.2944   -0.4134    1.2968 C   0  0  0  0  0  0  0  0  0  0  0  0
    1.1274   -1.9618    0.6964 H   0  0  0  0  0  0  0  0  0  0  0  0
    3.5915   -1.8365    0.4512 H   0  0  0  0  0  0  0  0  0  0  0  0
    5.6363    0.0981   -0.5548 H   0  0  0  0  0  0  0  0  0  0  0  0
    0.7081    2.0117   -0.9745 H   0  0  0  0  0  0  0  0  0  0  0  0
   -1.1678    0.3734   -2.0252 H   0  0  0  0  0  0  0  0  0  0  0  0
   -3.6324    0.2279   -1.7970 H   0  0  0  0  0  0  0  0  0  0  0  0
   -5.6429   -0.3603    0.3355 H   0  0  0  0  0  0  0  0  0  0  0  0
   -0.6718   -0.5834    2.1694 H   0  0  0  0  0  0  0  0  0  0  0  0
  1  2  2  0
  2  3  1  0
  3  4  1  0
  4  5  1  0
  5  6  2  0
  6  7  1  0
  7  8  1  0
  8  9  2  0
  9 10  1  0
 10 11  2  0
 11 12  1  0
 12 13  2  0
 13 14  1  0
 14 15  1  0
 15 16  2  0
 16 17  1  0
 17 18  2  0
  9  1  1  0
 18 10  1  0
  7  3  2  0
 17 13  1  0
  1 19  1  0
  2 20  1  0
  4 21  1  0
  8 22  1  0
 11 23  1  0
 12 24  1  0
 14 25  1  0
 18 26  1  0
M  END
