
     RDKit          3D

 20 22  0  0  0  0  0  0  0  0999 V2000
    0.0797    1.3112   -0.0880 C   0  0  0  0  0  0  0  0  0  0  0  0
    1.4705    1.4930   -0.0453 C   0  0  0  0  0  0  0  0  0  0  0  0
    2.2404    0.3367    0.0595 C   0  0  0  0  0  0  0  0  0  0  0  0
    3.5857    0.1052    0.1263 N   0  0  0  0  0  0  0  0  0  0  0  0
    3.8644   -1.2049    0.2215 N   0  0  0  0  0  0  0  0  0  0  0  0
    2.7092   -1.8588    0.2189 N   0  0  0  0  0  0  0  0  0  0  0  0
    1.7001   -0.9391    0.1197 C   0  0  0  0  0  0  0  0  0  0  0  0
    0.3081   -1.1048    0.0754 C   0  0  0  0  0  0  0  0  0  0  0  0
   -0.5106    0.0349   -0.0269 C   0  0  0  0  0  0  0  0  0  0  0  0
   -1.9535   -0.1237   -0.0787 C   0  0  0  0  0  0  0  0  0  0  0  0
   -2.7589   -1.1903   -0.5406 C   0  0  0  0  0  0  0  0  0  0  0  0
   -4.0635   -0.9429   -0.3996 N   0  0  0  0  0  0  0  0  0  0  0  0
   -4.1337    0.3140    0.1773 O   0  0  0  0  0  0  0  0  0  0  0  0
   -2.8781    0.7919    0.3673 C   0  0  0  0  0  0  0  0  0  0  0  0
   -0.5419    2.2003   -0.1863 H   0  0  0  0  0  0  0  0  0  0  0  0
    1.9126    2.4823   -0.0965 H   0  0  0  0  0  0  0  0  0  0  0  0
    4.3520    0.7667    0.1133 H   0  0  0  0  0  0  0  0  0  0  0  0
   -0.1006   -2.1077    0.1338 H   0  0  0  0  0  0  0  0  0  0  0  0
   -2.4569   -2.1316   -0.9780 H   0  0  0  0  0  0  0  0  0  0  0  0
   -2.8249    1.7676    0.8267 H   0  0  0  0  0  0  0  0  0  0  0  0
  1  2  2  0
  2  3  1  0
  3  4  1  0
  4  5  1  0
  5  6  2  0
  6  7  1  0
  7  8  1  0
  8  9  2  0
  9 10  1  0
 10 11  1  0
 11 12  2  0
 12 13  1  0
 13 14  1  0
  9  1  1  0
 14 10  2  0
  7  3  2  0
  1 15  1  0
  2 16  1  0
  4 17  1  0
  8 18  1  0
 11 19  1  0
 14 20  1  0
M  END
