
     RDKit          3D

 36 41  0  0  0  0  0  0  0  0999 V2000
   -2.9343    3.0884    0.7055 C   0  0  0  0  0  0  0  0  0  0  0  0
   -3.7529    2.0085    0.4404 C   0  0  0  0  0  0  0  0  0  0  0  0
   -2.9242    0.8877    0.1402 C   0  0  0  0  0  0  0  0  0  0  0  0
   -1.6270    1.3539    0.2406 C   0  0  0  0  0  0  0  0  0  0  0  0
   -1.6329    2.6723    0.5792 N   0  0  0  0  0  0  0  0  0  0  0  0
   -0.4353    0.4148   -0.0183 C   0  0  0  0  0  0  0  0  0  0  0  0
    0.8990    0.6762    0.0290 N   0  0  0  0  0  0  0  0  0  0  0  0
    1.6052   -0.4669   -0.2751 C   0  0  0  0  0  0  0  0  0  0  0  0
    0.6636   -1.4589   -0.5158 C   0  0  0  0  0  0  0  0  0  0  0  0
   -0.6409   -0.9068   -0.3546 C   0  0  0  0  0  0  0  0  0  0  0  0
   -1.9890   -1.3624   -0.4516 C   0  0  0  0  0  0  0  0  0  0  0  0
   -2.2366   -2.7056   -0.7928 C   0  0  0  0  0  0  0  0  0  0  0  0
   -3.5457   -3.1817   -0.8956 C   0  0  0  0  0  0  0  0  0  0  0  0
   -4.6265   -2.3325   -0.6614 C   0  0  0  0  0  0  0  0  0  0  0  0
   -4.4143   -0.9945   -0.3210 C   0  0  0  0  0  0  0  0  0  0  0  0
   -3.1072   -0.4835   -0.2092 C   0  0  0  0  0  0  0  0  0  0  0  0
    3.0404   -0.5208   -0.3103 C   0  0  0  0  0  0  0  0  0  0  0  0
    3.8969   -1.9978   -0.7024 S   0  0  0  0  0  0  0  0  0  0  0  0
    5.4616   -1.2820   -0.5418 C   0  0  0  0  0  0  0  0  0  0  0  0
    5.2831    0.0071   -0.2081 C   0  0  0  0  0  0  0  0  0  0  0  0
    6.2697    0.9178    0.0110 O   0  0  0  0  0  0  0  0  0  0  0  0
    5.5010    2.0254    0.3069 C   0  0  0  0  0  0  0  0  0  0  0  0
    4.1202    1.7920    0.2675 C   0  0  0  0  0  0  0  0  0  0  0  0
    3.9804    0.4311   -0.0799 C   0  0  0  0  0  0  0  0  0  0  0  0
   -3.1670    4.1108    0.9715 H   0  0  0  0  0  0  0  0  0  0  0  0
   -4.8343    2.0258    0.4609 H   0  0  0  0  0  0  0  0  0  0  0  0
   -0.8185    3.2533    0.7163 H   0  0  0  0  0  0  0  0  0  0  0  0
    1.3074    1.5694    0.2522 H   0  0  0  0  0  0  0  0  0  0  0  0
    0.8864   -2.4837   -0.7823 H   0  0  0  0  0  0  0  0  0  0  0  0
   -1.4159   -3.3926   -0.9814 H   0  0  0  0  0  0  0  0  0  0  0  0
   -3.7222   -4.2213   -1.1599 H   0  0  0  0  0  0  0  0  0  0  0  0
   -5.6413   -2.7135   -0.7441 H   0  0  0  0  0  0  0  0  0  0  0  0
   -5.2773   -0.3580   -0.1447 H   0  0  0  0  0  0  0  0  0  0  0  0
    6.3874   -1.8171   -0.6930 H   0  0  0  0  0  0  0  0  0  0  0  0
    6.0800    2.9133    0.5263 H   0  0  0  0  0  0  0  0  0  0  0  0
    3.3612    2.5317    0.4688 H   0  0  0  0  0  0  0  0  0  0  0  0
  1  2  2  0
  2  3  1  0
  3  4  2  0
  4  5  1  0
  4  6  1  0
  6  7  1  0
  7  8  1  0
  8  9  2  0
  9 10  1  0
 10 11  1  0
 11 12  2  0
 12 13  1  0
 13 14  2  0
 14 15  1  0
 15 16  2  0
  8 17  1  0
 17 18  1  0
 18 19  1  0
 19 20  2  0
 20 21  1  0
 21 22  1  0
 22 23  2  0
 23 24  1  0
  5  1  1  0
 10  6  2  0
 16 11  1  0
 24 17  2  0
 16  3  1  0
 24 20  1  0
  1 25  1  0
  2 26  1  0
  5 27  1  0
  7 28  1  0
  9 29  1  0
 12 30  1  0
 13 31  1  0
 14 32  1  0
 15 33  1  0
 19 34  1  0
 22 35  1  0
 23 36  1  0
M  END
