
     RDKit          3D

 47 54  0  0  0  0  0  0  0  0999 V2000
   -5.3604    2.0870    0.8801 C   0  0  0  0  0  0  0  0  0  0  0  0
   -5.4046    0.7216    0.7592 C   0  0  0  0  0  0  0  0  0  0  0  0
   -4.0931    0.2653    0.4193 C   0  0  0  0  0  0  0  0  0  0  0  0
   -3.2839    1.3955    0.2898 C   0  0  0  0  0  0  0  0  0  0  0  0
   -4.0790    2.4782    0.6138 N   0  0  0  0  0  0  0  0  0  0  0  0
   -1.9150    1.3015   -0.0417 C   0  0  0  0  0  0  0  0  0  0  0  0
   -1.0691    2.3839   -0.3797 C   0  0  0  0  0  0  0  0  0  0  0  0
   -1.5096    3.6480   -0.7109 C   0  0  0  0  0  0  0  0  0  0  0  0
   -0.2299    4.7202   -1.0941 S   0  0  0  0  0  0  0  0  0  0  0  0
    0.9352    3.4831   -0.9018 C   0  0  0  0  0  0  0  0  0  0  0  0
    0.3659    2.2757   -0.5558 C   0  0  0  0  0  0  0  0  0  0  0  0
    1.1204    1.0939   -0.3415 C   0  0  0  0  0  0  0  0  0  0  0  0
    2.5813    1.0256   -0.4296 C   0  0  0  0  0  0  0  0  0  0  0  0
    3.3793   -0.0992   -0.0971 C   0  0  0  0  0  0  0  0  0  0  0  0
    4.8376   -0.1354   -0.1973 C   0  0  0  0  0  0  0  0  0  0  0  0
    5.4619   -1.3132   -0.1160 N   0  0  0  0  0  0  0  0  0  0  0  0
    6.7860   -1.2576   -0.2414 C   0  0  0  0  0  0  0  0  0  0  0  0
    7.5091   -0.1594   -0.4353 N   0  0  0  0  0  0  0  0  0  0  0  0
    6.7844    0.9523   -0.5051 C   0  0  0  0  0  0  0  0  0  0  0  0
    5.4600    1.0326   -0.3998 N   0  0  0  0  0  0  0  0  0  0  0  0
    2.5381   -1.0963    0.4017 C   0  0  0  0  0  0  0  0  0  0  0  0
    2.9158   -2.2757    0.9973 C   0  0  0  0  0  0  0  0  0  0  0  0
    1.8248   -2.9213    1.4924 O   0  0  0  0  0  0  0  0  0  0  0  0
    0.7370   -2.1546    1.2060 C   0  0  0  0  0  0  0  0  0  0  0  0
    1.0975   -1.0565    0.4581 C   0  0  0  0  0  0  0  0  0  0  0  0
    0.2359   -0.0105    0.0029 C   0  0  0  0  0  0  0  0  0  0  0  0
   -1.2640    0.0265   -0.0395 C   0  0  0  0  0  0  0  0  0  0  0  0
   -2.1364   -1.1192   -0.1270 C   0  0  0  0  0  0  0  0  0  0  0  0
   -1.7171   -2.3958   -0.5768 C   0  0  0  0  0  0  0  0  0  0  0  0
   -2.5655   -3.5088   -0.6217 C   0  0  0  0  0  0  0  0  0  0  0  0
   -3.8929   -3.3822   -0.2485 C   0  0  0  0  0  0  0  0  0  0  0  0
   -4.3791   -2.1331    0.1197 C   0  0  0  0  0  0  0  0  0  0  0  0
   -3.5269   -1.0045    0.1450 C   0  0  0  0  0  0  0  0  0  0  0  0
   -6.1221    2.8083    1.1440 H   0  0  0  0  0  0  0  0  0  0  0  0
   -6.2848    0.1116    0.9127 H   0  0  0  0  0  0  0  0  0  0  0  0
   -3.7487    3.4258    0.7146 H   0  0  0  0  0  0  0  0  0  0  0  0
   -2.5115    4.0341   -0.7986 H   0  0  0  0  0  0  0  0  0  0  0  0
    1.9720    3.7330   -1.0722 H   0  0  0  0  0  0  0  0  0  0  0  0
    3.1160    1.9164   -0.7614 H   0  0  0  0  0  0  0  0  0  0  0  0
    7.3251   -2.1970   -0.1797 H   0  0  0  0  0  0  0  0  0  0  0  0
    7.3221    1.8808   -0.6641 H   0  0  0  0  0  0  0  0  0  0  0  0
    3.8595   -2.7638    1.1966 H   0  0  0  0  0  0  0  0  0  0  0  0
   -0.1922   -2.5258    1.6154 H   0  0  0  0  0  0  0  0  0  0  0  0
   -0.7052   -2.5408   -0.9498 H   0  0  0  0  0  0  0  0  0  0  0  0
   -2.1821   -4.4674   -0.9620 H   0  0  0  0  0  0  0  0  0  0  0  0
   -4.5570   -4.2414   -0.2793 H   0  0  0  0  0  0  0  0  0  0  0  0
   -5.4351   -2.0415    0.3592 H   0  0  0  0  0  0  0  0  0  0  0  0
  1  2  2  0
  2  3  1  0
  3  4  2  0
  4  5  1  0
  4  6  1  0
  6  7  1  0
  7  8  2  0
  8  9  1  0
  9 10  1  0
 10 11  2  0
 11 12  1  0
 12 13  1  0
 13 14  2  0
 14 15  1  0
 15 16  2  0
 16 17  1  0
 17 18  2  0
 18 19  1  0
 19 20  2  0
 14 21  1  0
 21 22  2  0
 22 23  1  0
 23 24  1  0
 24 25  2  0
 25 26  1  0
 26 27  1  0
 27 28  1  0
 28 29  2  0
 29 30  1  0
 30 31  2  0
 31 32  1  0
 32 33  2  0
  5  1  1  0
 27  6  2  0
 33 28  1  0
 33  3  1  0
 11  7  1  0
 26 12  2  0
 20 15  1  0
 25 21  1  0
  1 34  1  0
  2 35  1  0
  5 36  1  0
  8 37  1  0
 10 38  1  0
 13 39  1  0
 17 40  1  0
 19 41  1  0
 22 42  1  0
 24 43  1  0
 29 44  1  0
 30 45  1  0
 31 46  1  0
 32 47  1  0
M  END
