
     RDKit          3D

 38 44  0  0  0  0  0  0  0  0999 V2000
    6.3091    0.8998   -1.4545 C   0  0  0  0  0  0  0  0  0  0  0  0
    5.8072    1.3559   -0.2547 C   0  0  0  0  0  0  0  0  0  0  0  0
    4.4496    0.9979   -0.1373 C   0  0  0  0  0  0  0  0  0  0  0  0
    3.9043    0.2932   -1.1908 C   0  0  0  0  0  0  0  0  0  0  0  0
    2.5583   -0.1362   -1.2200 C   0  0  0  0  0  0  0  0  0  0  0  0
    1.6751    0.1314   -0.1471 C   0  0  0  0  0  0  0  0  0  0  0  0
    0.2851   -0.2937   -0.1489 C   0  0  0  0  0  0  0  0  0  0  0  0
   -0.8269    0.5776   -0.0223 C   0  0  0  0  0  0  0  0  0  0  0  0
   -2.2151    0.1375   -0.0450 C   0  0  0  0  0  0  0  0  0  0  0  0
   -3.3589    0.9573    0.0750 C   0  0  0  0  0  0  0  0  0  0  0  0
   -3.4120    2.3183    0.2400 C   0  0  0  0  0  0  0  0  0  0  0  0
   -4.7158    2.7281    0.3127 O   0  0  0  0  0  0  0  0  0  0  0  0
   -5.5050    1.6171    0.1956 C   0  0  0  0  0  0  0  0  0  0  0  0
   -4.7147    0.5086    0.0484 C   0  0  0  0  0  0  0  0  0  0  0  0
   -5.1525   -0.8003   -0.0976 C   0  0  0  0  0  0  0  0  0  0  0  0
   -4.0530   -1.6763   -0.2210 C   0  0  0  0  0  0  0  0  0  0  0  0
   -2.6606   -1.2386   -0.1971 C   0  0  0  0  0  0  0  0  0  0  0  0
   -1.5166   -2.0590   -0.3101 C   0  0  0  0  0  0  0  0  0  0  0  0
   -1.4805   -3.4229   -0.4540 C   0  0  0  0  0  0  0  0  0  0  0  0
   -0.1845   -3.8504   -0.5098 O   0  0  0  0  0  0  0  0  0  0  0  0
    0.6170   -2.7499   -0.3987 C   0  0  0  0  0  0  0  0  0  0  0  0
   -0.1521   -1.6177   -0.2877 C   0  0  0  0  0  0  0  0  0  0  0  0
    2.2266    0.8654    0.9404 C   0  0  0  0  0  0  0  0  0  0  0  0
    1.5909    1.2500    2.0690 N   0  0  0  0  0  0  0  0  0  0  0  0
    2.7014    2.0699    3.0121 S   0  0  0  0  0  0  0  0  0  0  0  0
    4.0555    1.9895    2.0310 N   0  0  0  0  0  0  0  0  0  0  0  0
    3.6103    1.3135    0.9818 C   0  0  0  0  0  0  0  0  0  0  0  0
    5.1315    0.0648   -2.3866 S   0  0  0  0  0  0  0  0  0  0  0  0
    7.3142    1.0145   -1.8375 H   0  0  0  0  0  0  0  0  0  0  0  0
    6.3891    1.9067    0.4747 H   0  0  0  0  0  0  0  0  0  0  0  0
    2.1944   -0.6763   -2.0938 H   0  0  0  0  0  0  0  0  0  0  0  0
   -0.6321    1.6437    0.0996 H   0  0  0  0  0  0  0  0  0  0  0  0
   -2.6776    3.1067    0.3229 H   0  0  0  0  0  0  0  0  0  0  0  0
   -6.5699    1.7964    0.2380 H   0  0  0  0  0  0  0  0  0  0  0  0
   -6.1825   -1.1270   -0.1150 H   0  0  0  0  0  0  0  0  0  0  0  0
   -4.2630   -2.7390   -0.3396 H   0  0  0  0  0  0  0  0  0  0  0  0
   -2.2248   -4.2032   -0.5234 H   0  0  0  0  0  0  0  0  0  0  0  0
    1.6786   -2.9534   -0.4137 H   0  0  0  0  0  0  0  0  0  0  0  0
  1  2  2  0
  2  3  1  0
  3  4  2  0
  4  5  1  0
  5  6  2  0
  6  7  1  0
  7  8  2  0
  8  9  1  0
  9 10  1  0
 10 11  2  0
 11 12  1  0
 12 13  1  0
 13 14  2  0
 14 15  1  0
 15 16  2  0
 16 17  1  0
 17 18  1  0
 18 19  2  0
 19 20  1  0
 20 21  1  0
 21 22  2  0
  6 23  1  0
 23 24  2  0
 24 25  1  0
 25 26  1  0
 26 27  2  0
  4 28  1  0
 28  1  1  0
 27  3  1  0
 22  7  1  0
 27 23  1  0
 17  9  2  0
 22 18  1  0
 14 10  1  0
  1 29  1  0
  2 30  1  0
  5 31  1  0
  8 32  1  0
 11 33  1  0
 13 34  1  0
 15 35  1  0
 16 36  1  0
 19 37  1  0
 21 38  1  0
M  END
