
     RDKit          3D

 49 55  0  0  0  0  0  0  0  0999 V2000
   -1.1809    3.3173    0.8525 C   0  0  0  0  0  0  0  0  0  0  0  0
   -2.4093    2.5385    0.4790 C   0  0  0  0  0  0  0  0  0  0  0  0
   -2.0572    1.3102    0.0665 C   0  0  0  0  0  0  0  0  0  0  0  0
   -2.8786    0.1929   -0.3859 C   0  0  0  0  0  0  0  0  0  0  0  0
   -2.2174   -0.9469   -0.7071 C   0  0  0  0  0  0  0  0  0  0  0  0
   -0.7578   -1.0777   -0.6286 C   0  0  0  0  0  0  0  0  0  0  0  0
    0.0488   -0.0650   -0.2321 C   0  0  0  0  0  0  0  0  0  0  0  0
    1.4873   -0.3001   -0.1860 C   0  0  0  0  0  0  0  0  0  0  0  0
    2.1603   -1.0730    0.7933 C   0  0  0  0  0  0  0  0  0  0  0  0
    3.5860   -1.2724    0.8210 C   0  0  0  0  0  0  0  0  0  0  0  0
    4.4791   -0.7248   -0.1327 C   0  0  0  0  0  0  0  0  0  0  0  0
    5.9151   -0.9041   -0.1042 C   0  0  0  0  0  0  0  0  0  0  0  0
    6.8297   -0.3819    0.7887 C   0  0  0  0  0  0  0  0  0  0  0  0
    8.1636   -0.7976    0.5044 C   0  0  0  0  0  0  0  0  0  0  0  0
    8.2198   -1.6339   -0.5880 C   0  0  0  0  0  0  0  0  0  0  0  0
    6.6732   -1.9130   -1.2631 S   0  0  0  0  0  0  0  0  0  0  0  0
    3.8015    0.0410   -1.0850 C   0  0  0  0  0  0  0  0  0  0  0  0
    4.3116    0.7488   -2.1428 C   0  0  0  0  0  0  0  0  0  0  0  0
    3.2946    1.3616   -2.8227 O   0  0  0  0  0  0  0  0  0  0  0  0
    2.1241    1.0451   -2.1894 C   0  0  0  0  0  0  0  0  0  0  0  0
    2.3858    0.2423   -1.1088 C   0  0  0  0  0  0  0  0  0  0  0  0
   -0.6020    1.1807    0.1425 C   0  0  0  0  0  0  0  0  0  0  0  0
   -0.0783    2.3307    0.5949 C   0  0  0  0  0  0  0  0  0  0  0  0
   -4.3014    0.1890   -0.5035 C   0  0  0  0  0  0  0  0  0  0  0  0
   -5.1032    1.2038   -1.6714 S   0  0  0  0  0  0  0  0  0  0  0  0
   -6.6788    0.6562   -1.2231 C   0  0  0  0  0  0  0  0  0  0  0  0
   -6.5694   -0.2626   -0.2268 C   0  0  0  0  0  0  0  0  0  0  0  0
   -7.4670   -1.0463    0.5385 C   0  0  0  0  0  0  0  0  0  0  0  0
   -6.7622   -1.8018    1.4123 C   0  0  0  0  0  0  0  0  0  0  0  0
   -5.2560   -1.5511    1.2779 C   0  0  0  0  0  0  0  0  0  0  0  0
   -5.2452   -0.5372    0.1835 C   0  0  0  0  0  0  0  0  0  0  0  0
   -1.0703    4.2056    0.2234 H   0  0  0  0  0  0  0  0  0  0  0  0
   -1.2071    3.6112    1.9062 H   0  0  0  0  0  0  0  0  0  0  0  0
   -3.4150    2.9249    0.5429 H   0  0  0  0  0  0  0  0  0  0  0  0
   -2.7519   -1.8263   -1.0591 H   0  0  0  0  0  0  0  0  0  0  0  0
   -0.3493   -2.0418   -0.9230 H   0  0  0  0  0  0  0  0  0  0  0  0
    1.5691   -1.5411    1.5822 H   0  0  0  0  0  0  0  0  0  0  0  0
    3.9940   -1.8876    1.6241 H   0  0  0  0  0  0  0  0  0  0  0  0
    6.5559    0.2750    1.6062 H   0  0  0  0  0  0  0  0  0  0  0  0
    9.0356   -0.5006    1.0742 H   0  0  0  0  0  0  0  0  0  0  0  0
    9.0935   -2.0995   -1.0227 H   0  0  0  0  0  0  0  0  0  0  0  0
    5.3026    0.9186   -2.5400 H   0  0  0  0  0  0  0  0  0  0  0  0
    1.2295    1.4674   -2.6262 H   0  0  0  0  0  0  0  0  0  0  0  0
    0.9688    2.5343    0.7596 H   0  0  0  0  0  0  0  0  0  0  0  0
   -7.5611    1.0407   -1.7143 H   0  0  0  0  0  0  0  0  0  0  0  0
   -8.5425   -1.0356    0.4329 H   0  0  0  0  0  0  0  0  0  0  0  0
   -7.1885   -2.4956    2.1215 H   0  0  0  0  0  0  0  0  0  0  0  0
   -4.8443   -1.1502    2.2081 H   0  0  0  0  0  0  0  0  0  0  0  0
   -4.7347   -2.4682    0.9896 H   0  0  0  0  0  0  0  0  0  0  0  0
  1  2  1  0
  2  3  2  0
  3  4  1  0
  4  5  2  0
  5  6  1  0
  6  7  2  0
  7  8  1  0
  8  9  2  0
  9 10  1  0
 10 11  2  0
 11 12  1  0
 12 13  2  0
 13 14  1  0
 14 15  2  0
 15 16  1  0
 11 17  1  0
 17 18  2  0
 18 19  1  0
 19 20  1  0
 20 21  2  0
  7 22  1  0
 22 23  2  0
  4 24  1  0
 24 25  1  0
 25 26  1  0
 26 27  2  0
 27 28  1  0
 28 29  2  0
 29 30  1  0
 30 31  1  0
 23  1  1  0
 31 24  2  0
 22  3  1  0
 31 27  1  0
 21  8  1  0
 16 12  1  0
 21 17  1  0
  1 32  1  0
  1 33  1  0
  2 34  1  0
  5 35  1  0
  6 36  1  0
  9 37  1  0
 10 38  1  0
 13 39  1  0
 14 40  1  0
 15 41  1  0
 18 42  1  0
 20 43  1  0
 23 44  1  0
 26 45  1  0
 28 46  1  0
 29 47  1  0
 30 48  1  0
 30 49  1  0
M  END
