
     RDKit          3D

 50 56  0  0  0  0  0  0  0  0999 V2000
    2.8135   -3.2510    0.1157 C   0  0  0  0  0  0  0  0  0  0  0  0
    3.8878   -2.2017    0.1379 C   0  0  0  0  0  0  0  0  0  0  0  0
    3.3268   -0.9822    0.1499 C   0  0  0  0  0  0  0  0  0  0  0  0
    3.9466    0.3404    0.1766 C   0  0  0  0  0  0  0  0  0  0  0  0
    3.0917    1.3931    0.1466 C   0  0  0  0  0  0  0  0  0  0  0  0
    1.6322    1.2502    0.1212 C   0  0  0  0  0  0  0  0  0  0  0  0
    1.0131    0.0467    0.1037 C   0  0  0  0  0  0  0  0  0  0  0  0
   -0.4451    0.0146    0.0797 C   0  0  0  0  0  0  0  0  0  0  0  0
   -1.2899    0.3381    1.1699 C   0  0  0  0  0  0  0  0  0  0  0  0
   -2.7276    0.2876    1.1151 C   0  0  0  0  0  0  0  0  0  0  0  0
   -3.4671   -0.1022   -0.0309 C   0  0  0  0  0  0  0  0  0  0  0  0
   -4.9107   -0.1412   -0.0837 C   0  0  0  0  0  0  0  0  0  0  0  0
   -5.7693   -1.6178   -0.4301 S   0  0  0  0  0  0  0  0  0  0  0  0
   -7.3362   -0.8835   -0.2701 C   0  0  0  0  0  0  0  0  0  0  0  0
   -7.1522    0.4127    0.0496 C   0  0  0  0  0  0  0  0  0  0  0  0
   -8.1184    1.3480    0.2778 N   0  0  0  0  0  0  0  0  0  0  0  0
   -7.3440    2.4719    0.5626 C   0  0  0  0  0  0  0  0  0  0  0  0
   -5.9635    2.1834    0.4966 C   0  0  0  0  0  0  0  0  0  0  0  0
   -5.8395    0.8117    0.1549 C   0  0  0  0  0  0  0  0  0  0  0  0
   -2.6185   -0.4075   -1.0994 C   0  0  0  0  0  0  0  0  0  0  0  0
   -2.9397   -0.7753   -2.3813 C   0  0  0  0  0  0  0  0  0  0  0  0
   -1.7979   -0.9650   -3.1107 O   0  0  0  0  0  0  0  0  0  0  0  0
   -0.7358   -0.7042   -2.2902 C   0  0  0  0  0  0  0  0  0  0  0  0
   -1.1891   -0.3529   -1.0447 C   0  0  0  0  0  0  0  0  0  0  0  0
    1.8713   -1.1268    0.1216 C   0  0  0  0  0  0  0  0  0  0  0  0
    1.5560   -2.4310    0.1096 C   0  0  0  0  0  0  0  0  0  0  0  0
    5.3697    0.5888    0.2011 C   0  0  0  0  0  0  0  0  0  0  0  0
    6.3858    0.3228    1.7775 Si  0  0  0  0  0  4  0  0  0  0  0  0
    7.8906    0.8896    0.7920 C   0  0  0  0  0  0  0  0  0  0  0  0
    7.5583    1.1942   -0.4758 C   0  0  0  0  0  0  0  0  0  0  0  0
    6.1513    1.0285   -0.8066 C   0  0  0  0  0  0  0  0  0  0  0  0
    2.8653   -3.8861    1.0049 H   0  0  0  0  0  0  0  0  0  0  0  0
    2.8850   -3.8686   -0.7844 H   0  0  0  0  0  0  0  0  0  0  0  0
    4.9444   -2.4200    0.1393 H   0  0  0  0  0  0  0  0  0  0  0  0
    3.4660    2.4142    0.1481 H   0  0  0  0  0  0  0  0  0  0  0  0
    1.0635    2.1768    0.1073 H   0  0  0  0  0  0  0  0  0  0  0  0
   -0.8305    0.6387    2.1127 H   0  0  0  0  0  0  0  0  0  0  0  0
   -3.2745    0.5575    2.0201 H   0  0  0  0  0  0  0  0  0  0  0  0
   -8.2536   -1.4371   -0.4109 H   0  0  0  0  0  0  0  0  0  0  0  0
   -9.1236    1.2299    0.2430 H   0  0  0  0  0  0  0  0  0  0  0  0
   -7.8417    3.4057    0.7915 H   0  0  0  0  0  0  0  0  0  0  0  0
   -5.1661    2.8934    0.6727 H   0  0  0  0  0  0  0  0  0  0  0  0
   -3.8623   -0.9379   -2.9204 H   0  0  0  0  0  0  0  0  0  0  0  0
    0.2400   -0.8078   -2.7441 H   0  0  0  0  0  0  0  0  0  0  0  0
    0.5601   -2.8468    0.0884 H   0  0  0  0  0  0  0  0  0  0  0  0
    6.5035   -1.1050    2.1696 H   0  0  0  0  0  0  0  0  0  0  0  0
    6.0507    1.2827    2.8598 H   0  0  0  0  0  0  0  0  0  0  0  0
    8.8702    0.9419    1.2397 H   0  0  0  0  0  0  0  0  0  0  0  0
    8.2665    1.5400   -1.2189 H   0  0  0  0  0  0  0  0  0  0  0  0
    5.7872    1.2481   -1.8031 H   0  0  0  0  0  0  0  0  0  0  0  0
  1  2  1  0
  2  3  2  0
  3  4  1  0
  4  5  2  0
  5  6  1  0
  6  7  2  0
  7  8  1  0
  8  9  2  0
  9 10  1  0
 10 11  2  0
 11 12  1  0
 12 13  1  0
 13 14  1  0
 14 15  2  0
 15 16  1  0
 16 17  1  0
 17 18  2  0
 18 19  1  0
 11 20  1  0
 20 21  2  0
 21 22  1  0
 22 23  1  0
 23 24  2  0
  7 25  1  0
 25 26  2  0
  4 27  1  0
 27 28  1  0
 28 29  1  0
 29 30  2  0
 30 31  1  0
 26  1  1  0
 31 27  2  0
 25  3  1  0
 24  8  1  0
 19 12  2  0
 24 20  1  0
 19 15  1  0
  1 32  1  0
  1 33  1  0
  2 34  1  0
  5 35  1  0
  6 36  1  0
  9 37  1  0
 10 38  1  0
 14 39  1  0
 16 40  1  0
 17 41  1  0
 18 42  1  0
 21 43  1  0
 23 44  1  0
 26 45  1  0
 28 46  1  0
 28 47  1  0
 29 48  1  0
 30 49  1  0
 31 50  1  0
M  END
