
     RDKit          3D

 49 55  0  0  0  0  0  0  0  0999 V2000
   -2.7854   -2.6977   -1.2424 C   0  0  0  0  0  0  0  0  0  0  0  0
   -3.9562   -1.8357   -0.8701 C   0  0  0  0  0  0  0  0  0  0  0  0
   -3.5259   -0.7222   -0.2548 C   0  0  0  0  0  0  0  0  0  0  0  0
   -4.2720    0.4079    0.2992 C   0  0  0  0  0  0  0  0  0  0  0  0
   -3.5223    1.3784    0.8818 C   0  0  0  0  0  0  0  0  0  0  0  0
   -2.0578    1.3289    0.9711 C   0  0  0  0  0  0  0  0  0  0  0  0
   -1.3258    0.3112    0.4627 C   0  0  0  0  0  0  0  0  0  0  0  0
    0.1257    0.3588    0.6065 C   0  0  0  0  0  0  0  0  0  0  0  0
    0.8320    0.0976    1.8062 C   0  0  0  0  0  0  0  0  0  0  0  0
    2.2646    0.1447    1.9201 C   0  0  0  0  0  0  0  0  0  0  0  0
    3.1356    0.4530    0.8453 C   0  0  0  0  0  0  0  0  0  0  0  0
    4.5732    0.4810    0.9447 C   0  0  0  0  0  0  0  0  0  0  0  0
    5.4246    1.5656    1.9931 S   0  0  0  0  0  0  0  0  0  0  0  0
    6.9898    0.9657    1.5206 C   0  0  0  0  0  0  0  0  0  0  0  0
    6.7930   -0.0188    0.6203 C   0  0  0  0  0  0  0  0  0  0  0  0
    7.5037   -0.9497   -0.1764 C   0  0  0  0  0  0  0  0  0  0  0  0
    6.5446   -1.6972   -0.8945 C   0  0  0  0  0  0  0  0  0  0  0  0
    5.2459   -1.2900   -0.5947 N   0  0  0  0  0  0  0  0  0  0  0  0
    5.4802   -0.2893    0.3051 C   0  0  0  0  0  0  0  0  0  0  0  0
    2.4242    0.7139   -0.3335 C   0  0  0  0  0  0  0  0  0  0  0  0
    2.9213    1.0812   -1.5617 C   0  0  0  0  0  0  0  0  0  0  0  0
    1.8462    1.2458   -2.4088 N   0  0  0  0  0  0  0  0  0  0  0  0
    0.6691    0.9938   -1.7394 C   0  0  0  0  0  0  0  0  0  0  0  0
    0.9962    0.6675   -0.4455 C   0  0  0  0  0  0  0  0  0  0  0  0
   -2.0647   -0.7679   -0.1701 C   0  0  0  0  0  0  0  0  0  0  0  0
   -1.6201   -1.9010   -0.7348 C   0  0  0  0  0  0  0  0  0  0  0  0
   -5.7001    0.5671    0.2535 C   0  0  0  0  0  0  0  0  0  0  0  0
   -6.5605    1.2884    1.0823 C   0  0  0  0  0  0  0  0  0  0  0  0
   -7.8835    1.1215    0.6088 C   0  0  0  0  0  0  0  0  0  0  0  0
   -7.7848    0.3045   -0.4853 C   0  0  0  0  0  0  0  0  0  0  0  0
   -6.4940   -0.0356   -0.7057 O   0  0  0  0  0  0  0  0  0  0  0  0
   -2.8412   -3.6720   -0.7482 H   0  0  0  0  0  0  0  0  0  0  0  0
   -2.7266   -2.8360   -2.3258 H   0  0  0  0  0  0  0  0  0  0  0  0
   -4.9841   -2.0933   -1.0742 H   0  0  0  0  0  0  0  0  0  0  0  0
   -3.9718    2.2726    1.3039 H   0  0  0  0  0  0  0  0  0  0  0  0
   -1.5789    2.1732    1.4612 H   0  0  0  0  0  0  0  0  0  0  0  0
    0.2618   -0.1605    2.6994 H   0  0  0  0  0  0  0  0  0  0  0  0
    2.6987   -0.0809    2.8952 H   0  0  0  0  0  0  0  0  0  0  0  0
    7.9003    1.3702    1.9373 H   0  0  0  0  0  0  0  0  0  0  0  0
    8.5753   -1.0848   -0.2383 H   0  0  0  0  0  0  0  0  0  0  0  0
    6.6890   -2.5013   -1.6045 H   0  0  0  0  0  0  0  0  0  0  0  0
    4.3478   -1.6158   -0.9334 H   0  0  0  0  0  0  0  0  0  0  0  0
    3.9284    1.2576   -1.9162 H   0  0  0  0  0  0  0  0  0  0  0  0
    1.9107    1.5268   -3.3787 H   0  0  0  0  0  0  0  0  0  0  0  0
   -0.2830    1.0825   -2.2462 H   0  0  0  0  0  0  0  0  0  0  0  0
   -0.5888   -2.2076   -0.8176 H   0  0  0  0  0  0  0  0  0  0  0  0
   -6.2608    1.8665    1.9455 H   0  0  0  0  0  0  0  0  0  0  0  0
   -8.7915    1.5410    1.0174 H   0  0  0  0  0  0  0  0  0  0  0  0
   -8.5019   -0.1093   -1.1802 H   0  0  0  0  0  0  0  0  0  0  0  0
  1  2  1  0
  2  3  2  0
  3  4  1  0
  4  5  2  0
  5  6  1  0
  6  7  2  0
  7  8  1  0
  8  9  2  0
  9 10  1  0
 10 11  2  0
 11 12  1  0
 12 13  1  0
 13 14  1  0
 14 15  2  0
 15 16  1  0
 16 17  2  0
 17 18  1  0
 18 19  1  0
 11 20  1  0
 20 21  2  0
 21 22  1  0
 22 23  1  0
 23 24  2  0
  7 25  1  0
 25 26  2  0
  4 27  1  0
 27 28  2  0
 28 29  1  0
 29 30  2  0
 30 31  1  0
 26  1  1  0
 31 27  1  0
 25  3  1  0
 24  8  1  0
 19 12  2  0
 24 20  1  0
 19 15  1  0
  1 32  1  0
  1 33  1  0
  2 34  1  0
  5 35  1  0
  6 36  1  0
  9 37  1  0
 10 38  1  0
 14 39  1  0
 16 40  1  0
 17 41  1  0
 18 42  1  0
 21 43  1  0
 22 44  1  0
 23 45  1  0
 26 46  1  0
 28 47  1  0
 29 48  1  0
 30 49  1  0
M  END
