
     RDKit          3D

 46 51  0  0  0  0  0  0  0  0999 V2000
    3.4045   -2.2985    1.7571 C   0  0  0  0  0  0  0  0  0  0  0  0
    4.3259   -1.4582    0.9194 C   0  0  0  0  0  0  0  0  0  0  0  0
    3.6170   -0.5165    0.2770 C   0  0  0  0  0  0  0  0  0  0  0  0
    4.0503    0.5260   -0.6479 C   0  0  0  0  0  0  0  0  0  0  0  0
    3.0760    1.3303   -1.1423 C   0  0  0  0  0  0  0  0  0  0  0  0
    1.6568    1.1776   -0.7996 C   0  0  0  0  0  0  0  0  0  0  0  0
    1.2074    0.2270    0.0530 C   0  0  0  0  0  0  0  0  0  0  0  0
   -0.2347    0.1527    0.3304 C   0  0  0  0  0  0  0  0  0  0  0  0
   -1.0405   -0.7517   -0.3689 C   0  0  0  0  0  0  0  0  0  0  0  0
   -2.4105   -0.8291   -0.1000 C   0  0  0  0  0  0  0  0  0  0  0  0
   -2.9960   -0.0091    0.8747 C   0  0  0  0  0  0  0  0  0  0  0  0
   -2.1822    0.8946    1.5721 C   0  0  0  0  0  0  0  0  0  0  0  0
   -0.8119    0.9742    1.3042 C   0  0  0  0  0  0  0  0  0  0  0  0
   -4.4341   -0.0925    1.1347 C   0  0  0  0  0  0  0  0  0  0  0  0
   -5.0270   -0.3058    2.7525 S   0  0  0  0  0  0  0  0  0  0  0  0
   -6.6807   -0.3260    2.2532 C   0  0  0  0  0  0  0  0  0  0  0  0
   -6.7439   -0.1786    0.9024 C   0  0  0  0  0  0  0  0  0  0  0  0
   -7.7753   -0.1126   -0.0659 C   0  0  0  0  0  0  0  0  0  0  0  0
   -7.2243    0.0542   -1.2900 C   0  0  0  0  0  0  0  0  0  0  0  0
   -5.6944    0.1114   -1.2099 C   0  0  0  0  0  0  0  0  0  0  0  0
   -5.4910   -0.0514    0.2593 C   0  0  0  0  0  0  0  0  0  0  0  0
    2.2041   -0.6632    0.6248 C   0  0  0  0  0  0  0  0  0  0  0  0
    2.0618   -1.6852    1.4822 C   0  0  0  0  0  0  0  0  0  0  0  0
    5.4072    0.7843   -1.0237 C   0  0  0  0  0  0  0  0  0  0  0  0
    6.4734    1.1408   -0.2138 C   0  0  0  0  0  0  0  0  0  0  0  0
    7.6931    1.2991   -0.9330 C   0  0  0  0  0  0  0  0  0  0  0  0
    7.5317    1.0499   -2.2759 C   0  0  0  0  0  0  0  0  0  0  0  0
    5.9223    0.6262   -2.6621 S   0  0  0  0  0  0  0  0  0  0  0  0
    3.6611   -2.2260    2.8180 H   0  0  0  0  0  0  0  0  0  0  0  0
    3.4309   -3.3456    1.4413 H   0  0  0  0  0  0  0  0  0  0  0  0
    5.3924   -1.6094    0.8527 H   0  0  0  0  0  0  0  0  0  0  0  0
    3.3096    2.1476   -1.8204 H   0  0  0  0  0  0  0  0  0  0  0  0
    0.9720    1.8777   -1.2718 H   0  0  0  0  0  0  0  0  0  0  0  0
   -0.6047   -1.4036   -1.1228 H   0  0  0  0  0  0  0  0  0  0  0  0
   -3.0145   -1.5483   -0.6483 H   0  0  0  0  0  0  0  0  0  0  0  0
   -2.6088    1.5516    2.3269 H   0  0  0  0  0  0  0  0  0  0  0  0
   -0.1984    1.6788    1.8612 H   0  0  0  0  0  0  0  0  0  0  0  0
   -7.4778   -0.4420    2.9733 H   0  0  0  0  0  0  0  0  0  0  0  0
   -8.8320   -0.1831    0.1498 H   0  0  0  0  0  0  0  0  0  0  0  0
   -7.7748    0.1384   -2.2150 H   0  0  0  0  0  0  0  0  0  0  0  0
   -5.3223    1.0751   -1.5684 H   0  0  0  0  0  0  0  0  0  0  0  0
   -5.2483   -0.7090   -1.7786 H   0  0  0  0  0  0  0  0  0  0  0  0
    1.1340   -2.0296    1.9131 H   0  0  0  0  0  0  0  0  0  0  0  0
    6.3753    1.2863    0.8557 H   0  0  0  0  0  0  0  0  0  0  0  0
    8.6392    1.5792   -0.4866 H   0  0  0  0  0  0  0  0  0  0  0  0
    8.2826    1.0923   -3.0528 H   0  0  0  0  0  0  0  0  0  0  0  0
  1  2  1  0
  2  3  2  0
  3  4  1  0
  4  5  2  0
  5  6  1  0
  6  7  2  0
  7  8  1  0
  8  9  2  0
  9 10  1  0
 10 11  2  0
 11 12  1  0
 12 13  2  0
 11 14  1  0
 14 15  1  0
 15 16  1  0
 16 17  2  0
 17 18  1  0
 18 19  2  0
 19 20  1  0
 20 21  1  0
  7 22  1  0
 22 23  2  0
  4 24  1  0
 24 25  2  0
 25 26  1  0
 26 27  2  0
 27 28  1  0
 23  1  1  0
 28 24  1  0
 22  3  1  0
 13  8  1  0
 21 14  2  0
 21 17  1  0
  1 29  1  0
  1 30  1  0
  2 31  1  0
  5 32  1  0
  6 33  1  0
  9 34  1  0
 10 35  1  0
 12 36  1  0
 13 37  1  0
 16 38  1  0
 18 39  1  0
 19 40  1  0
 20 41  1  0
 20 42  1  0
 23 43  1  0
 25 44  1  0
 26 45  1  0
 27 46  1  0
M  END
