
     RDKit          3D

 43 48  0  0  0  0  0  0  0  0999 V2000
   -0.4780   -2.5058   -1.8863 C   0  0  0  0  0  0  0  0  0  0  0  0
    0.6320   -1.8290   -1.1336 C   0  0  0  0  0  0  0  0  0  0  0  0
    0.1679   -0.7206   -0.5326 C   0  0  0  0  0  0  0  0  0  0  0  0
    0.8409    0.2692    0.3092 C   0  0  0  0  0  0  0  0  0  0  0  0
    0.0502    1.2480    0.8198 C   0  0  0  0  0  0  0  0  0  0  0  0
   -1.3839    1.3631    0.5383 C   0  0  0  0  0  0  0  0  0  0  0  0
   -2.0481    0.4842   -0.2466 C   0  0  0  0  0  0  0  0  0  0  0  0
   -3.4747    0.6919   -0.4662 C   0  0  0  0  0  0  0  0  0  0  0  0
   -4.0461    1.7021   -1.2800 C   0  0  0  0  0  0  0  0  0  0  0  0
   -5.4642    1.8690   -1.4817 C   0  0  0  0  0  0  0  0  0  0  0  0
   -6.4570    1.0478   -0.8950 C   0  0  0  0  0  0  0  0  0  0  0  0
   -5.8682    0.0692   -0.1054 C   0  0  0  0  0  0  0  0  0  0  0  0
   -6.5048   -0.9020    0.6192 C   0  0  0  0  0  0  0  0  0  0  0  0
   -5.5748   -1.6695    1.2680 O   0  0  0  0  0  0  0  0  0  0  0  0
   -4.3370   -1.1765    0.9508 C   0  0  0  0  0  0  0  0  0  0  0  0
   -4.4685   -0.1073    0.1021 C   0  0  0  0  0  0  0  0  0  0  0  0
   -1.2662   -0.6028   -0.8136 C   0  0  0  0  0  0  0  0  0  0  0  0
   -1.6515   -1.6169   -1.6032 C   0  0  0  0  0  0  0  0  0  0  0  0
    2.2325    0.3204    0.6622 C   0  0  0  0  0  0  0  0  0  0  0  0
    2.7186    0.5679    1.8674 N   0  0  0  0  0  0  0  0  0  0  0  0
    4.1001    0.5750    1.8429 C   0  0  0  0  0  0  0  0  0  0  0  0
    4.6840    0.3623    0.6125 C   0  0  0  0  0  0  0  0  0  0  0  0
    3.4558    0.1472   -0.5575 S   0  0  0  0  0  0  0  0  0  0  0  0
    6.0870    0.3263    0.3162 C   0  0  0  0  0  0  0  0  0  0  0  0
    6.7405    0.1266   -0.8914 C   0  0  0  0  0  0  0  0  0  0  0  0
    8.1327    0.1846   -0.6370 C   0  0  0  0  0  0  0  0  0  0  0  0
    8.2600    0.4161    0.7091 C   0  0  0  0  0  0  0  0  0  0  0  0
    7.0393    0.5032    1.2918 O   0  0  0  0  0  0  0  0  0  0  0  0
   -0.6501   -3.5174   -1.5072 H   0  0  0  0  0  0  0  0  0  0  0  0
   -0.2608   -2.5447   -2.9577 H   0  0  0  0  0  0  0  0  0  0  0  0
    1.6399   -2.2113   -1.0973 H   0  0  0  0  0  0  0  0  0  0  0  0
    0.4648    2.0172    1.4695 H   0  0  0  0  0  0  0  0  0  0  0  0
   -1.8955    2.2013    1.0056 H   0  0  0  0  0  0  0  0  0  0  0  0
   -3.3782    2.3956   -1.7931 H   0  0  0  0  0  0  0  0  0  0  0  0
   -5.7892    2.6827   -2.1320 H   0  0  0  0  0  0  0  0  0  0  0  0
   -7.5171    1.1839   -1.0539 H   0  0  0  0  0  0  0  0  0  0  0  0
   -7.5354   -1.1812    0.7850 H   0  0  0  0  0  0  0  0  0  0  0  0
   -3.5011   -1.6916    1.4032 H   0  0  0  0  0  0  0  0  0  0  0  0
   -2.6504   -1.7945   -1.9722 H   0  0  0  0  0  0  0  0  0  0  0  0
    4.6417    0.7476    2.7657 H   0  0  0  0  0  0  0  0  0  0  0  0
    6.2681   -0.0416   -1.8495 H   0  0  0  0  0  0  0  0  0  0  0  0
    8.9400    0.0718   -1.3467 H   0  0  0  0  0  0  0  0  0  0  0  0
    9.1047    0.5384    1.3728 H   0  0  0  0  0  0  0  0  0  0  0  0
  1  2  1  0
  2  3  2  0
  3  4  1  0
  4  5  2  0
  5  6  1  0
  6  7  2  0
  7  8  1  0
  8  9  2  0
  9 10  1  0
 10 11  2  0
 11 12  1  0
 12 13  2  0
 13 14  1  0
 14 15  1  0
 15 16  2  0
  7 17  1  0
 17 18  2  0
  4 19  1  0
 19 20  2  0
 20 21  1  0
 21 22  2  0
 22 23  1  0
 22 24  1  0
 24 25  2  0
 25 26  1  0
 26 27  2  0
 27 28  1  0
 18  1  1  0
 23 19  1  0
 28 24  1  0
 17  3  1  0
 16  8  1  0
 16 12  1  0
  1 29  1  0
  1 30  1  0
  2 31  1  0
  5 32  1  0
  6 33  1  0
  9 34  1  0
 10 35  1  0
 11 36  1  0
 13 37  1  0
 15 38  1  0
 18 39  1  0
 21 40  1  0
 25 41  1  0
 26 42  1  0
 27 43  1  0
M  END
