
     RDKit          3D

 44 49  0  0  0  0  0  0  0  0999 V2000
   -2.5634    2.4054   -1.8011 C   0  0  0  0  0  0  0  0  0  0  0  0
   -1.2894    1.8121   -1.2832 C   0  0  0  0  0  0  0  0  0  0  0  0
   -1.5705    0.7713   -0.4834 C   0  0  0  0  0  0  0  0  0  0  0  0
   -0.6654   -0.1190    0.2308 C   0  0  0  0  0  0  0  0  0  0  0  0
   -1.2493   -1.1019    0.9565 C   0  0  0  0  0  0  0  0  0  0  0  0
   -2.7019   -1.2845    1.0338 C   0  0  0  0  0  0  0  0  0  0  0  0
   -3.6022   -0.4895    0.3976 C   0  0  0  0  0  0  0  0  0  0  0  0
   -5.0548   -0.7694    0.5717 C   0  0  0  0  0  0  0  0  0  0  0  0
   -5.4092   -1.9901    0.9959 N   0  0  0  0  0  0  0  0  0  0  0  0
   -6.7182   -2.1770    1.1398 C   0  0  0  0  0  0  0  0  0  0  0  0
   -7.6680   -1.2763    0.9102 N   0  0  0  0  0  0  0  0  0  0  0  0
   -7.2009   -0.1015    0.5000 C   0  0  0  0  0  0  0  0  0  0  0  0
   -5.9224    0.2130    0.3120 N   0  0  0  0  0  0  0  0  0  0  0  0
   -3.0254    0.5913   -0.4075 C   0  0  0  0  0  0  0  0  0  0  0  0
   -3.6074    1.5290   -1.1739 C   0  0  0  0  0  0  0  0  0  0  0  0
    0.7627   -0.0233    0.2359 C   0  0  0  0  0  0  0  0  0  0  0  0
    1.7184   -1.2474   -0.5180 S   0  0  0  0  0  0  0  0  0  0  0  0
    3.2191   -0.4797   -0.1424 C   0  0  0  0  0  0  0  0  0  0  0  0
    4.4793   -1.1074   -0.5611 C   0  0  0  0  0  0  0  0  0  0  0  0
    5.6024   -0.3629   -0.9121 C   0  0  0  0  0  0  0  0  0  0  0  0
    6.7637   -1.0299   -1.2979 C   0  0  0  0  0  0  0  0  0  0  0  0
    6.7748   -2.4181   -1.3239 C   0  0  0  0  0  0  0  0  0  0  0  0
    5.6180   -3.0849   -0.9617 C   0  0  0  0  0  0  0  0  0  0  0  0
    4.4791   -2.4646   -0.5841 N   0  0  0  0  0  0  0  0  0  0  0  0
    2.9889    0.7028    0.5301 C   0  0  0  0  0  0  0  0  0  0  0  0
    3.9830    1.5401    0.9572 N   0  0  0  0  0  0  0  0  0  0  0  0
    3.4747    2.6221    1.6047 C   0  0  0  0  0  0  0  0  0  0  0  0
    2.1157    2.8710    1.8119 C   0  0  0  0  0  0  0  0  0  0  0  0
    1.1049    2.0662    1.3969 N   0  0  0  0  0  0  0  0  0  0  0  0
    1.5814    0.9625    0.7470 C   0  0  0  0  0  0  0  0  0  0  0  0
   -2.6082    2.3509   -2.8927 H   0  0  0  0  0  0  0  0  0  0  0  0
   -2.6752    3.4446   -1.4784 H   0  0  0  0  0  0  0  0  0  0  0  0
   -0.3051    2.1809   -1.5264 H   0  0  0  0  0  0  0  0  0  0  0  0
   -0.6554   -1.8072    1.5332 H   0  0  0  0  0  0  0  0  0  0  0  0
   -3.0247   -2.1132    1.6605 H   0  0  0  0  0  0  0  0  0  0  0  0
   -7.0399   -3.1563    1.4772 H   0  0  0  0  0  0  0  0  0  0  0  0
   -7.9312    0.6749    0.2992 H   0  0  0  0  0  0  0  0  0  0  0  0
   -4.6656    1.6611   -1.3360 H   0  0  0  0  0  0  0  0  0  0  0  0
    5.5863    0.7218   -0.8940 H   0  0  0  0  0  0  0  0  0  0  0  0
    7.6504   -0.4670   -1.5746 H   0  0  0  0  0  0  0  0  0  0  0  0
    7.6619   -2.9670   -1.6187 H   0  0  0  0  0  0  0  0  0  0  0  0
    5.5727   -4.1702   -0.9651 H   0  0  0  0  0  0  0  0  0  0  0  0
    4.2180    3.3229    1.9746 H   0  0  0  0  0  0  0  0  0  0  0  0
    1.7983    3.7646    2.3418 H   0  0  0  0  0  0  0  0  0  0  0  0
  1  2  1  0
  2  3  2  0
  3  4  1  0
  4  5  2  0
  5  6  1  0
  6  7  2  0
  7  8  1  0
  8  9  2  0
  9 10  1  0
 10 11  2  0
 11 12  1  0
 12 13  2  0
  7 14  1  0
 14 15  2  0
  4 16  1  0
 16 17  1  0
 17 18  1  0
 18 19  1  0
 19 20  2  0
 20 21  1  0
 21 22  2  0
 22 23  1  0
 23 24  2  0
 18 25  2  0
 25 26  1  0
 26 27  2  0
 27 28  1  0
 28 29  2  0
 29 30  1  0
 15  1  1  0
 30 16  2  0
 14  3  1  0
 24 19  1  0
 30 25  1  0
 13  8  1  0
  1 31  1  0
  1 32  1  0
  2 33  1  0
  5 34  1  0
  6 35  1  0
 10 36  1  0
 12 37  1  0
 15 38  1  0
 20 39  1  0
 21 40  1  0
 22 41  1  0
 23 42  1  0
 27 43  1  0
 28 44  1  0
M  END
