
     RDKit          3D

 50 56  0  0  0  0  0  0  0  0999 V2000
   -2.7244    1.5724   -2.8343 C   0  0  0  0  0  0  0  0  0  0  0  0
   -1.4482    1.4869   -2.0506 C   0  0  0  0  0  0  0  0  0  0  0  0
   -1.7005    0.9991   -0.8253 C   0  0  0  0  0  0  0  0  0  0  0  0
   -0.7879    0.7184    0.2802 C   0  0  0  0  0  0  0  0  0  0  0  0
   -1.3613    0.2177    1.4040 C   0  0  0  0  0  0  0  0  0  0  0  0
   -2.7986   -0.0566    1.5236 C   0  0  0  0  0  0  0  0  0  0  0  0
   -3.6879    0.1864    0.5300 C   0  0  0  0  0  0  0  0  0  0  0  0
   -5.0592   -0.1131    0.7826 C   0  0  0  0  0  0  0  0  0  0  0  0
   -6.2916    1.1343    0.7502 S   0  0  0  0  0  0  0  0  0  0  0  0
   -7.5823    0.0444    1.1509 C   0  0  0  0  0  0  0  0  0  0  0  0
   -7.0525   -1.1851    1.2970 C   0  0  0  0  0  0  0  0  0  0  0  0
   -7.7178   -2.3328    1.6150 N   0  0  0  0  0  0  0  0  0  0  0  0
   -6.6739   -3.2566    1.6232 C   0  0  0  0  0  0  0  0  0  0  0  0
   -5.4382   -2.6476    1.3147 C   0  0  0  0  0  0  0  0  0  0  0  0
   -5.6937   -1.2677    1.1000 C   0  0  0  0  0  0  0  0  0  0  0  0
   -3.1350    0.7309   -0.7043 C   0  0  0  0  0  0  0  0  0  0  0  0
   -3.7392    1.0480   -1.8606 C   0  0  0  0  0  0  0  0  0  0  0  0
    0.6270    0.9744    0.2539 C   0  0  0  0  0  0  0  0  0  0  0  0
    1.2061    2.0684   -0.2140 N   0  0  0  0  0  0  0  0  0  0  0  0
    2.5801    1.9782   -0.1175 C   0  0  0  0  0  0  0  0  0  0  0  0
    3.0658    0.8004    0.4054 C   0  0  0  0  0  0  0  0  0  0  0  0
    1.7601   -0.2313    0.7984 S   0  0  0  0  0  0  0  0  0  0  0  0
    4.4468    0.3775    0.6317 C   0  0  0  0  0  0  0  0  0  0  0  0
    4.9610    0.4820    1.9350 C   0  0  0  0  0  0  0  0  0  0  0  0
    6.2740    0.1155    2.2099 C   0  0  0  0  0  0  0  0  0  0  0  0
    7.0892   -0.3568    1.1846 C   0  0  0  0  0  0  0  0  0  0  0  0
    6.6066   -0.4720   -0.1281 C   0  0  0  0  0  0  0  0  0  0  0  0
    7.4464   -0.9511   -1.1474 C   0  0  0  0  0  0  0  0  0  0  0  0
    6.9873   -1.0769   -2.4576 C   0  0  0  0  0  0  0  0  0  0  0  0
    5.6801   -0.7268   -2.7666 C   0  0  0  0  0  0  0  0  0  0  0  0
    4.8323   -0.2485   -1.7650 C   0  0  0  0  0  0  0  0  0  0  0  0
    5.2692   -0.1051   -0.4253 C   0  0  0  0  0  0  0  0  0  0  0  0
   -2.9460    2.6057   -3.1166 H   0  0  0  0  0  0  0  0  0  0  0  0
   -2.6786    0.9463   -3.7302 H   0  0  0  0  0  0  0  0  0  0  0  0
   -0.4805    1.7803   -2.4298 H   0  0  0  0  0  0  0  0  0  0  0  0
   -0.7788    0.0063    2.2973 H   0  0  0  0  0  0  0  0  0  0  0  0
   -3.1232   -0.4582    2.4812 H   0  0  0  0  0  0  0  0  0  0  0  0
   -8.6075    0.3712    1.2504 H   0  0  0  0  0  0  0  0  0  0  0  0
   -8.7076   -2.4529    1.7914 H   0  0  0  0  0  0  0  0  0  0  0  0
   -6.8935   -4.2926    1.8481 H   0  0  0  0  0  0  0  0  0  0  0  0
   -4.4858   -3.1577    1.2543 H   0  0  0  0  0  0  0  0  0  0  0  0
   -4.7911    0.9490   -2.0798 H   0  0  0  0  0  0  0  0  0  0  0  0
    3.1887    2.8093   -0.4535 H   0  0  0  0  0  0  0  0  0  0  0  0
    4.3355    0.8551    2.7436 H   0  0  0  0  0  0  0  0  0  0  0  0
    6.6634    0.1990    3.2211 H   0  0  0  0  0  0  0  0  0  0  0  0
    8.1141   -0.6376    1.4200 H   0  0  0  0  0  0  0  0  0  0  0  0
    8.4737   -1.2336   -0.9262 H   0  0  0  0  0  0  0  0  0  0  0  0
    7.6504   -1.4503   -3.2334 H   0  0  0  0  0  0  0  0  0  0  0  0
    5.3141   -0.8261   -3.7852 H   0  0  0  0  0  0  0  0  0  0  0  0
    3.8128    0.0086   -2.0459 H   0  0  0  0  0  0  0  0  0  0  0  0
  1  2  1  0
  2  3  2  0
  3  4  1  0
  4  5  2  0
  5  6  1  0
  6  7  2  0
  7  8  1  0
  8  9  1  0
  9 10  1  0
 10 11  2  0
 11 12  1  0
 12 13  1  0
 13 14  2  0
 14 15  1  0
  7 16  1  0
 16 17  2  0
  4 18  1  0
 18 19  2  0
 19 20  1  0
 20 21  2  0
 21 22  1  0
 21 23  1  0
 23 24  2  0
 24 25  1  0
 25 26  2  0
 26 27  1  0
 27 28  2  0
 28 29  1  0
 29 30  2  0
 30 31  1  0
 31 32  2  0
 17  1  1  0
 22 18  1  0
 32 23  1  0
 16  3  1  0
 32 27  1  0
 15  8  2  0
 15 11  1  0
  1 33  1  0
  1 34  1  0
  2 35  1  0
  5 36  1  0
  6 37  1  0
 10 38  1  0
 12 39  1  0
 13 40  1  0
 14 41  1  0
 17 42  1  0
 20 43  1  0
 24 44  1  0
 25 45  1  0
 26 46  1  0
 28 47  1  0
 29 48  1  0
 30 49  1  0
 31 50  1  0
M  END
