
     RDKit          3D

 44 50  0  0  0  0  0  0  0  0999 V2000
   -2.2906   -0.8495    2.0108 C   0  0  0  0  0  0  0  0  0  0  0  0
   -0.8878   -0.6749    1.5084 C   0  0  0  0  0  0  0  0  0  0  0  0
   -0.8964   -0.5069    0.1759 C   0  0  0  0  0  0  0  0  0  0  0  0
    0.2078   -0.3159   -0.7645 C   0  0  0  0  0  0  0  0  0  0  0  0
   -0.1474   -0.1937   -2.0686 C   0  0  0  0  0  0  0  0  0  0  0  0
   -1.5372   -0.2423   -2.5395 C   0  0  0  0  0  0  0  0  0  0  0  0
   -2.5946   -0.4198   -1.7115 C   0  0  0  0  0  0  0  0  0  0  0  0
   -3.9069   -0.4141   -2.2725 C   0  0  0  0  0  0  0  0  0  0  0  0
   -4.4403   -1.6584   -3.3615 S   0  0  0  0  0  0  0  0  0  0  0  0
   -6.0165   -0.9850   -3.5355 C   0  0  0  0  0  0  0  0  0  0  0  0
   -6.1350    0.1471   -2.7838 C   0  0  0  0  0  0  0  0  0  0  0  0
   -7.5195    1.2748   -2.5531 S   0  0  0  0  0  0  0  0  0  0  0  0
   -6.4283    2.1534   -1.4886 C   0  0  0  0  0  0  0  0  0  0  0  0
   -5.1428    1.6191   -1.3416 C   0  0  0  0  0  0  0  0  0  0  0  0
   -4.9558    0.4320   -2.0987 C   0  0  0  0  0  0  0  0  0  0  0  0
   -2.2823   -0.5598   -0.2956 C   0  0  0  0  0  0  0  0  0  0  0  0
   -3.0997   -0.7603    0.7505 C   0  0  0  0  0  0  0  0  0  0  0  0
    1.5987   -0.2342   -0.4104 C   0  0  0  0  0  0  0  0  0  0  0  0
    2.7445   -0.4698   -1.1627 C   0  0  0  0  0  0  0  0  0  0  0  0
    3.8709   -0.2466   -0.3339 C   0  0  0  0  0  0  0  0  0  0  0  0
    3.3955    0.1120    0.9114 C   0  0  0  0  0  0  0  0  0  0  0  0
    2.0278    0.1209    0.8502 O   0  0  0  0  0  0  0  0  0  0  0  0
    4.1134    0.4437    2.1105 C   0  0  0  0  0  0  0  0  0  0  0  0
    3.3298    1.2734    3.4132 S   0  0  0  0  0  0  0  0  0  0  0  0
    4.7469    1.3142    4.3857 C   0  0  0  0  0  0  0  0  0  0  0  0
    5.7811    0.7007    3.7416 C   0  0  0  0  0  0  0  0  0  0  0  0
    7.4836    0.4268    4.2631 S   0  0  0  0  0  0  0  0  0  0  0  0
    7.6656   -0.3805    2.7153 C   0  0  0  0  0  0  0  0  0  0  0  0
    6.5292   -0.4197    1.8985 C   0  0  0  0  0  0  0  0  0  0  0  0
    5.4016    0.2253    2.4835 C   0  0  0  0  0  0  0  0  0  0  0  0
   -2.5612   -0.0533    2.7104 H   0  0  0  0  0  0  0  0  0  0  0  0
   -2.4179   -1.8235    2.4922 H   0  0  0  0  0  0  0  0  0  0  0  0
   -0.0157   -0.6905    2.1445 H   0  0  0  0  0  0  0  0  0  0  0  0
    0.5887   -0.0269   -2.8497 H   0  0  0  0  0  0  0  0  0  0  0  0
   -1.6763   -0.1080   -3.6098 H   0  0  0  0  0  0  0  0  0  0  0  0
   -6.7731   -1.4351   -4.1630 H   0  0  0  0  0  0  0  0  0  0  0  0
   -6.8146    3.0471   -1.0177 H   0  0  0  0  0  0  0  0  0  0  0  0
   -4.3889    2.0789   -0.7135 H   0  0  0  0  0  0  0  0  0  0  0  0
   -4.1743   -0.8542    0.7132 H   0  0  0  0  0  0  0  0  0  0  0  0
    2.7669   -0.7760   -2.1994 H   0  0  0  0  0  0  0  0  0  0  0  0
    4.9062   -0.3325   -0.6270 H   0  0  0  0  0  0  0  0  0  0  0  0
    4.7652    1.7687    5.3667 H   0  0  0  0  0  0  0  0  0  0  0  0
    8.6372   -0.7994    2.4907 H   0  0  0  0  0  0  0  0  0  0  0  0
    6.5424   -0.9072    0.9327 H   0  0  0  0  0  0  0  0  0  0  0  0
  1  2  1  0
  2  3  2  0
  3  4  1  0
  4  5  2  0
  5  6  1  0
  6  7  2  0
  7  8  1  0
  8  9  1  0
  9 10  1  0
 10 11  2  0
 11 12  1  0
 12 13  1  0
 13 14  2  0
 14 15  1  0
  7 16  1  0
 16 17  2  0
  4 18  1  0
 18 19  2  0
 19 20  1  0
 20 21  2  0
 21 22  1  0
 21 23  1  0
 23 24  1  0
 24 25  1  0
 25 26  2  0
 26 27  1  0
 27 28  1  0
 28 29  2  0
 29 30  1  0
 17  1  1  0
 22 18  1  0
 30 23  2  0
 16  3  1  0
 30 26  1  0
 15  8  2  0
 15 11  1  0
  1 31  1  0
  1 32  1  0
  2 33  1  0
  5 34  1  0
  6 35  1  0
 10 36  1  0
 13 37  1  0
 14 38  1  0
 17 39  1  0
 19 40  1  0
 20 41  1  0
 25 42  1  0
 28 43  1  0
 29 44  1  0
M  END
