
     RDKit          3D

 46 53  0  0  0  0  0  0  0  0999 V2000
    5.1510    0.7270   -3.2143 C   0  0  0  0  0  0  0  0  0  0  0  0
    5.6573    0.7813   -1.9336 C   0  0  0  0  0  0  0  0  0  0  0  0
    4.5471    0.6640   -1.0501 C   0  0  0  0  0  0  0  0  0  0  0  0
    3.4526    0.5430   -1.8810 C   0  0  0  0  0  0  0  0  0  0  0  0
    3.7990    0.5855   -3.1890 O   0  0  0  0  0  0  0  0  0  0  0  0
    2.0454    0.3688   -1.3012 C   0  0  0  0  0  0  0  0  0  0  0  0
    0.8854    0.2791   -2.0064 N   0  0  0  0  0  0  0  0  0  0  0  0
   -0.1567    0.0484   -1.1375 C   0  0  0  0  0  0  0  0  0  0  0  0
   -1.5401   -0.1252   -1.3992 C   0  0  0  0  0  0  0  0  0  0  0  0
   -2.4539   -0.4391   -0.3662 C   0  0  0  0  0  0  0  0  0  0  0  0
   -3.8738   -0.6556   -0.5947 C   0  0  0  0  0  0  0  0  0  0  0  0
   -4.5123   -1.9022   -0.3765 C   0  0  0  0  0  0  0  0  0  0  0  0
   -5.8897   -2.1364   -0.6014 C   0  0  0  0  0  0  0  0  0  0  0  0
   -6.7646   -1.1460   -1.0729 C   0  0  0  0  0  0  0  0  0  0  0  0
   -6.1928    0.1237   -1.3238 C   0  0  0  0  0  0  0  0  0  0  0  0
   -6.8566    1.1967   -1.7813 N   0  0  0  0  0  0  0  0  0  0  0  0
   -5.7423    2.4203   -1.9013 S   0  0  0  0  0  0  0  0  0  0  0  0
   -4.3697    1.6455   -1.3906 N   0  0  0  0  0  0  0  0  0  0  0  0
   -4.7205    0.3822   -1.0866 C   0  0  0  0  0  0  0  0  0  0  0  0
   -1.8127   -0.5857    0.8709 C   0  0  0  0  0  0  0  0  0  0  0  0
   -2.4177   -0.9458    2.0579 C   0  0  0  0  0  0  0  0  0  0  0  0
   -1.4348   -1.0619    3.0198 N   0  0  0  0  0  0  0  0  0  0  0  0
   -0.2001   -0.7786    2.4744 C   0  0  0  0  0  0  0  0  0  0  0  0
   -0.4420   -0.4183    1.1814 C   0  0  0  0  0  0  0  0  0  0  0  0
    0.4396   -0.0201    0.1221 C   0  0  0  0  0  0  0  0  0  0  0  0
    1.8205    0.2945    0.0653 C   0  0  0  0  0  0  0  0  0  0  0  0
    2.9649    0.5443    0.9018 C   0  0  0  0  0  0  0  0  0  0  0  0
    2.8248    0.7337    2.2888 C   0  0  0  0  0  0  0  0  0  0  0  0
    3.9320    0.9425    3.1179 C   0  0  0  0  0  0  0  0  0  0  0  0
    5.2145    0.9941    2.5824 C   0  0  0  0  0  0  0  0  0  0  0  0
    5.4006    0.8780    1.2063 C   0  0  0  0  0  0  0  0  0  0  0  0
    4.2995    0.6803    0.3500 C   0  0  0  0  0  0  0  0  0  0  0  0
    5.5962    0.7774   -4.1982 H   0  0  0  0  0  0  0  0  0  0  0  0
    6.6985    0.9020   -1.6725 H   0  0  0  0  0  0  0  0  0  0  0  0
    0.8102    0.3442   -3.0119 H   0  0  0  0  0  0  0  0  0  0  0  0
   -1.9050   -0.0276   -2.4203 H   0  0  0  0  0  0  0  0  0  0  0  0
   -3.9070   -2.7375   -0.0180 H   0  0  0  0  0  0  0  0  0  0  0  0
   -6.2867   -3.1321   -0.4019 H   0  0  0  0  0  0  0  0  0  0  0  0
   -7.8174   -1.3362   -1.2423 H   0  0  0  0  0  0  0  0  0  0  0  0
   -3.4475   -1.1534    2.3142 H   0  0  0  0  0  0  0  0  0  0  0  0
   -1.5930   -1.3475    3.9773 H   0  0  0  0  0  0  0  0  0  0  0  0
    0.6905   -0.9005    3.0699 H   0  0  0  0  0  0  0  0  0  0  0  0
    1.8430    0.7895    2.7405 H   0  0  0  0  0  0  0  0  0  0  0  0
    3.7852    1.0834    4.1860 H   0  0  0  0  0  0  0  0  0  0  0  0
    6.0690    1.1576    3.2339 H   0  0  0  0  0  0  0  0  0  0  0  0
    6.4099    0.9631    0.8119 H   0  0  0  0  0  0  0  0  0  0  0  0
  1  2  2  0
  2  3  1  0
  3  4  2  0
  4  5  1  0
  4  6  1  0
  6  7  1  0
  7  8  1  0
  8  9  1  0
  9 10  2  0
 10 11  1  0
 11 12  2  0
 12 13  1  0
 13 14  2  0
 14 15  1  0
 15 16  2  0
 16 17  1  0
 17 18  1  0
 18 19  2  0
 10 20  1  0
 20 21  2  0
 21 22  1  0
 22 23  1  0
 23 24  2  0
 24 25  1  0
 25 26  1  0
 26 27  1  0
 27 28  2  0
 28 29  1  0
 29 30  2  0
 30 31  1  0
 31 32  2  0
  5  1  1  0
 26  6  2  0
 32 27  1  0
 32  3  1  0
 25  8  2  0
 19 11  1  0
 24 20  1  0
 19 15  1  0
  1 33  1  0
  2 34  1  0
  7 35  1  0
  9 36  1  0
 12 37  1  0
 13 38  1  0
 14 39  1  0
 21 40  1  0
 22 41  1  0
 23 42  1  0
 28 43  1  0
 29 44  1  0
 30 45  1  0
 31 46  1  0
M  END
