
     RDKit          3D

 40 45  0  0  0  0  0  0  0  0999 V2000
   -2.1292    2.4017   -2.2794 C   0  0  0  0  0  0  0  0  0  0  0  0
   -3.0437    1.5370   -1.6442 C   0  0  0  0  0  0  0  0  0  0  0  0
   -2.2991    0.7152   -0.7563 C   0  0  0  0  0  0  0  0  0  0  0  0
   -2.4543   -0.3057    0.1182 C   0  0  0  0  0  0  0  0  0  0  0  0
   -0.8686   -0.7112    0.7107 S   0  0  0  0  0  0  0  0  0  0  0  0
   -0.0697    0.5247   -0.2101 C   0  0  0  0  0  0  0  0  0  0  0  0
    1.3396    0.7600   -0.1525 C   0  0  0  0  0  0  0  0  0  0  0  0
    2.0695    1.9239   -0.2822 C   0  0  0  0  0  0  0  0  0  0  0  0
    3.4403    1.5910   -0.1477 C   0  0  0  0  0  0  0  0  0  0  0  0
    3.5351    0.2295    0.0854 C   0  0  0  0  0  0  0  0  0  0  0  0
    2.2428   -0.2517    0.0817 N   0  0  0  0  0  0  0  0  0  0  0  0
    4.7073   -0.6213    0.2927 C   0  0  0  0  0  0  0  0  0  0  0  0
    5.9241   -0.3361   -0.3327 C   0  0  0  0  0  0  0  0  0  0  0  0
    7.0274   -1.1633   -0.1261 C   0  0  0  0  0  0  0  0  0  0  0  0
    6.8815   -2.2589    0.7076 C   0  0  0  0  0  0  0  0  0  0  0  0
    5.7297   -2.5712    1.3366 N   0  0  0  0  0  0  0  0  0  0  0  0
    4.6771   -1.7444    1.1187 C   0  0  0  0  0  0  0  0  0  0  0  0
   -1.0081    1.1647   -0.9438 C   0  0  0  0  0  0  0  0  0  0  0  0
   -0.8249    2.1723   -1.8497 N   0  0  0  0  0  0  0  0  0  0  0  0
   -3.6449   -0.9786    0.5441 C   0  0  0  0  0  0  0  0  0  0  0  0
   -3.7264   -2.7073    0.7880 S   0  0  0  0  0  0  0  0  0  0  0  0
   -5.4000   -2.6867    1.2362 C   0  0  0  0  0  0  0  0  0  0  0  0
   -5.8156   -1.4092    1.1876 C   0  0  0  0  0  0  0  0  0  0  0  0
   -7.0660   -0.9572    1.4756 O   0  0  0  0  0  0  0  0  0  0  0  0
   -6.8763    0.3966    1.2672 C   0  0  0  0  0  0  0  0  0  0  0  0
   -5.5770    0.7397    0.8718 C   0  0  0  0  0  0  0  0  0  0  0  0
   -4.8754   -0.4801    0.8142 C   0  0  0  0  0  0  0  0  0  0  0  0
   -2.3075    3.1648   -3.0265 H   0  0  0  0  0  0  0  0  0  0  0  0
   -4.1089    1.5112   -1.8321 H   0  0  0  0  0  0  0  0  0  0  0  0
    1.6704    2.9173   -0.4375 H   0  0  0  0  0  0  0  0  0  0  0  0
    4.2723    2.2825   -0.1937 H   0  0  0  0  0  0  0  0  0  0  0  0
    1.9808   -1.2205    0.2042 H   0  0  0  0  0  0  0  0  0  0  0  0
    6.0212    0.5214   -0.9930 H   0  0  0  0  0  0  0  0  0  0  0  0
    7.9767   -0.9576   -0.6076 H   0  0  0  0  0  0  0  0  0  0  0  0
    7.7117   -2.9332    0.8977 H   0  0  0  0  0  0  0  0  0  0  0  0
    3.7804   -2.0230    1.6650 H   0  0  0  0  0  0  0  0  0  0  0  0
    0.0483    2.6002   -2.1317 H   0  0  0  0  0  0  0  0  0  0  0  0
   -5.9625   -3.5697    1.5014 H   0  0  0  0  0  0  0  0  0  0  0  0
   -7.7606    0.9947    1.4451 H   0  0  0  0  0  0  0  0  0  0  0  0
   -5.2172    1.7384    0.6702 H   0  0  0  0  0  0  0  0  0  0  0  0
  1  2  2  0
  2  3  1  0
  3  4  2  0
  4  5  1  0
  5  6  1  0
  6  7  1  0
  7  8  2  0
  8  9  1  0
  9 10  2  0
 10 11  1  0
 10 12  1  0
 12 13  2  0
 13 14  1  0
 14 15  2  0
 15 16  1  0
 16 17  2  0
  6 18  2  0
 18 19  1  0
  4 20  1  0
 20 21  1  0
 21 22  1  0
 22 23  2  0
 23 24  1  0
 24 25  1  0
 25 26  2  0
 26 27  1  0
 19  1  1  0
 27 20  2  0
 18  3  1  0
 27 23  1  0
 11  7  1  0
 17 12  1  0
  1 28  1  0
  2 29  1  0
  8 30  1  0
  9 31  1  0
 11 32  1  0
 13 33  1  0
 14 34  1  0
 15 35  1  0
 17 36  1  0
 19 37  1  0
 22 38  1  0
 25 39  1  0
 26 40  1  0
M  END
