
     RDKit          3D

 37 42  0  0  0  0  0  0  0  0999 V2000
    2.7836   -2.5968   -2.3173 C   0  0  0  0  0  0  0  0  0  0  0  0
    3.6795   -1.8337   -1.5605 C   0  0  0  0  0  0  0  0  0  0  0  0
    3.0259   -0.9537   -0.6531 C   0  0  0  0  0  0  0  0  0  0  0  0
    3.4537   -0.0364    0.2538 C   0  0  0  0  0  0  0  0  0  0  0  0
    2.0488    0.6773    0.9662 S   0  0  0  0  0  0  0  0  0  0  0  0
    0.9623   -0.2600    0.0257 C   0  0  0  0  0  0  0  0  0  0  0  0
   -0.4688   -0.1517    0.1544 C   0  0  0  0  0  0  0  0  0  0  0  0
   -1.3069   -1.1586    0.6944 C   0  0  0  0  0  0  0  0  0  0  0  0
   -2.7371   -1.0396    0.8078 C   0  0  0  0  0  0  0  0  0  0  0  0
   -3.4733    0.1006    0.3982 C   0  0  0  0  0  0  0  0  0  0  0  0
   -4.9113    0.2146    0.4984 C   0  0  0  0  0  0  0  0  0  0  0  0
   -5.8978   -0.5638   -0.0775 C   0  0  0  0  0  0  0  0  0  0  0  0
   -7.2001   -0.2216    0.2357 N   0  0  0  0  0  0  0  0  0  0  0  0
   -7.1876    0.8048    1.0567 C   0  0  0  0  0  0  0  0  0  0  0  0
   -5.6434    1.4062    1.4955 S   0  0  0  0  0  0  0  0  0  0  0  0
   -2.6338    1.0771   -0.1468 C   0  0  0  0  0  0  0  0  0  0  0  0
   -2.9645    2.2892   -0.6972 C   0  0  0  0  0  0  0  0  0  0  0  0
   -1.8343    2.9240   -1.1328 O   0  0  0  0  0  0  0  0  0  0  0  0
   -0.7714    2.1061   -0.8670 C   0  0  0  0  0  0  0  0  0  0  0  0
   -1.2112    0.9571   -0.2612 C   0  0  0  0  0  0  0  0  0  0  0  0
    1.6444   -1.1052   -0.8036 C   0  0  0  0  0  0  0  0  0  0  0  0
    1.0768   -2.3208   -2.0148 S   0  0  0  0  0  0  0  0  0  0  0  0
    4.7894    0.3233    0.6411 C   0  0  0  0  0  0  0  0  0  0  0  0
    5.8868   -0.5079    0.7847 C   0  0  0  0  0  0  0  0  0  0  0  0
    7.0730    0.1010    1.1511 N   0  0  0  0  0  0  0  0  0  0  0  0
    6.8650    1.3908    1.2904 C   0  0  0  0  0  0  0  0  0  0  0  0
    5.2699    1.9378    0.9906 S   0  0  0  0  0  0  0  0  0  0  0  0
    3.0367   -3.3315   -3.0701 H   0  0  0  0  0  0  0  0  0  0  0  0
    4.7521   -1.9214   -1.6844 H   0  0  0  0  0  0  0  0  0  0  0  0
   -0.8500   -2.0834    1.0510 H   0  0  0  0  0  0  0  0  0  0  0  0
   -3.2763   -1.8815    1.2456 H   0  0  0  0  0  0  0  0  0  0  0  0
   -5.7212   -1.3997   -0.7442 H   0  0  0  0  0  0  0  0  0  0  0  0
   -8.0971    1.2482    1.4407 H   0  0  0  0  0  0  0  0  0  0  0  0
   -3.8869    2.8285   -0.8608 H   0  0  0  0  0  0  0  0  0  0  0  0
    0.1925    2.4873   -1.1742 H   0  0  0  0  0  0  0  0  0  0  0  0
    5.8801   -1.5817    0.6406 H   0  0  0  0  0  0  0  0  0  0  0  0
    7.6529    2.0750    1.5777 H   0  0  0  0  0  0  0  0  0  0  0  0
  1  2  2  0
  2  3  1  0
  3  4  2  0
  4  5  1  0
  5  6  1  0
  6  7  1  0
  7  8  2  0
  8  9  1  0
  9 10  2  0
 10 11  1  0
 11 12  2  0
 12 13  1  0
 13 14  2  0
 14 15  1  0
 10 16  1  0
 16 17  2  0
 17 18  1  0
 18 19  1  0
 19 20  2  0
  6 21  2  0
 21 22  1  0
  4 23  1  0
 23 24  2  0
 24 25  1  0
 25 26  2  0
 26 27  1  0
 22  1  1  0
 27 23  1  0
 21  3  1  0
 20  7  1  0
 15 11  1  0
 20 16  1  0
  1 28  1  0
  2 29  1  0
  8 30  1  0
  9 31  1  0
 12 32  1  0
 14 33  1  0
 17 34  1  0
 19 35  1  0
 24 36  1  0
 26 37  1  0
M  END
