
     RDKit          3D

 49 55  0  0  0  0  0  0  0  0999 V2000
   -1.7365   -2.3901   -1.6520 C   0  0  0  0  0  0  0  0  0  0  0  0
   -0.5579   -1.7314   -1.2414 C   0  0  0  0  0  0  0  0  0  0  0  0
   -0.9260   -0.7742   -0.2532 C   0  0  0  0  0  0  0  0  0  0  0  0
   -0.4087    0.1749    0.5652 C   0  0  0  0  0  0  0  0  0  0  0  0
   -1.7453    0.8668    1.4513 S   0  0  0  0  0  0  0  0  0  0  0  0
   -2.9264   -0.1343    0.6895 C   0  0  0  0  0  0  0  0  0  0  0  0
   -4.3317   -0.0655    0.9993 C   0  0  0  0  0  0  0  0  0  0  0  0
   -4.8907   -0.3378    2.2727 C   0  0  0  0  0  0  0  0  0  0  0  0
   -6.3010   -0.2885    2.5602 C   0  0  0  0  0  0  0  0  0  0  0  0
   -7.2963    0.0411    1.6107 C   0  0  0  0  0  0  0  0  0  0  0  0
   -6.7228    0.3136    0.3755 C   0  0  0  0  0  0  0  0  0  0  0  0
   -7.3966    0.6851   -0.7586 C   0  0  0  0  0  0  0  0  0  0  0  0
   -6.4486    0.8819   -1.7408 N   0  0  0  0  0  0  0  0  0  0  0  0
   -5.1857    0.6300   -1.2445 C   0  0  0  0  0  0  0  0  0  0  0  0
   -5.3276    0.2669    0.0736 C   0  0  0  0  0  0  0  0  0  0  0  0
   -2.2929   -0.9471   -0.1821 C   0  0  0  0  0  0  0  0  0  0  0  0
   -2.8538   -1.9037   -0.9806 N   0  0  0  0  0  0  0  0  0  0  0  0
    0.9444    0.6057    0.7654 C   0  0  0  0  0  0  0  0  0  0  0  0
    1.4484    1.7301    1.3911 C   0  0  0  0  0  0  0  0  0  0  0  0
    2.8619    1.6742    1.3147 C   0  0  0  0  0  0  0  0  0  0  0  0
    3.2092    0.5147    0.6471 C   0  0  0  0  0  0  0  0  0  0  0  0
    2.0285   -0.1186    0.3289 N   0  0  0  0  0  0  0  0  0  0  0  0
    4.5025   -0.0424    0.3062 C   0  0  0  0  0  0  0  0  0  0  0  0
    4.8727   -1.3952    0.5153 C   0  0  0  0  0  0  0  0  0  0  0  0
    6.1612   -1.9413    0.1746 C   0  0  0  0  0  0  0  0  0  0  0  0
    7.2105   -1.1979   -0.4129 C   0  0  0  0  0  0  0  0  0  0  0  0
    6.8233    0.1208   -0.6117 C   0  0  0  0  0  0  0  0  0  0  0  0
    7.5939    1.1059   -1.1725 C   0  0  0  0  0  0  0  0  0  0  0  0
    6.8229    2.2487   -1.1975 N   0  0  0  0  0  0  0  0  0  0  0  0
    5.5754    1.9974   -0.6647 C   0  0  0  0  0  0  0  0  0  0  0  0
    5.5509    0.6793   -0.2760 C   0  0  0  0  0  0  0  0  0  0  0  0
   -1.8672   -3.1764   -2.3843 H   0  0  0  0  0  0  0  0  0  0  0  0
    0.4278   -1.9368   -1.6347 H   0  0  0  0  0  0  0  0  0  0  0  0
   -4.2204   -0.6089    3.0895 H   0  0  0  0  0  0  0  0  0  0  0  0
   -6.6180   -0.5185    3.5781 H   0  0  0  0  0  0  0  0  0  0  0  0
   -8.3512    0.0801    1.8404 H   0  0  0  0  0  0  0  0  0  0  0  0
   -8.4466    0.8424   -0.9649 H   0  0  0  0  0  0  0  0  0  0  0  0
   -6.6482    1.1820   -2.6863 H   0  0  0  0  0  0  0  0  0  0  0  0
   -4.3158    0.7518   -1.8765 H   0  0  0  0  0  0  0  0  0  0  0  0
   -3.8346   -2.1534   -1.0439 H   0  0  0  0  0  0  0  0  0  0  0  0
    0.8651    2.5151    1.8553 H   0  0  0  0  0  0  0  0  0  0  0  0
    3.5570    2.4001    1.7170 H   0  0  0  0  0  0  0  0  0  0  0  0
    1.9718   -0.9977   -0.1628 H   0  0  0  0  0  0  0  0  0  0  0  0
    4.1537   -2.0693    0.9811 H   0  0  0  0  0  0  0  0  0  0  0  0
    6.3372   -2.9960    0.3891 H   0  0  0  0  0  0  0  0  0  0  0  0
    8.1729   -1.6183   -0.6655 H   0  0  0  0  0  0  0  0  0  0  0  0
    8.6035    1.1114   -1.5594 H   0  0  0  0  0  0  0  0  0  0  0  0
    7.1238    3.1422   -1.5632 H   0  0  0  0  0  0  0  0  0  0  0  0
    4.8318    2.7812   -0.6211 H   0  0  0  0  0  0  0  0  0  0  0  0
  1  2  2  0
  2  3  1  0
  3  4  2  0
  4  5  1  0
  5  6  1  0
  6  7  1  0
  7  8  2  0
  8  9  1  0
  9 10  2  0
 10 11  1  0
 11 12  2  0
 12 13  1  0
 13 14  1  0
 14 15  2  0
  6 16  2  0
 16 17  1  0
  4 18  1  0
 18 19  2  0
 19 20  1  0
 20 21  2  0
 21 22  1  0
 21 23  1  0
 23 24  2  0
 24 25  1  0
 25 26  2  0
 26 27  1  0
 27 28  2  0
 28 29  1  0
 29 30  1  0
 30 31  2  0
 17  1  1  0
 22 18  1  0
 31 23  1  0
 16  3  1  0
 31 27  1  0
 15  7  1  0
 15 11  1  0
  1 32  1  0
  2 33  1  0
  8 34  1  0
  9 35  1  0
 10 36  1  0
 12 37  1  0
 13 38  1  0
 14 39  1  0
 17 40  1  0
 19 41  1  0
 20 42  1  0
 22 43  1  0
 24 44  1  0
 25 45  1  0
 26 46  1  0
 28 47  1  0
 29 48  1  0
 30 49  1  0
M  END
