
     RDKit          3D

 45 52  0  0  0  0  0  0  0  0999 V2000
   -1.5389   -2.3279   -2.8817 C   0  0  0  0  0  0  0  0  0  0  0  0
   -0.3731   -1.8446   -2.2764 C   0  0  0  0  0  0  0  0  0  0  0  0
   -0.8189   -1.0388   -1.2108 C   0  0  0  0  0  0  0  0  0  0  0  0
   -0.3390   -0.2754   -0.1999 C   0  0  0  0  0  0  0  0  0  0  0  0
   -1.7147    0.3380    0.6777 S   0  0  0  0  0  0  0  0  0  0  0  0
   -2.8715   -0.4250   -0.3570 C   0  0  0  0  0  0  0  0  0  0  0  0
   -4.3014   -0.3621   -0.1732 C   0  0  0  0  0  0  0  0  0  0  0  0
   -5.1607   -1.4938   -0.1952 C   0  0  0  0  0  0  0  0  0  0  0  0
   -6.5881   -1.4378   -0.0028 C   0  0  0  0  0  0  0  0  0  0  0  0
   -7.3137   -0.2475    0.2282 C   0  0  0  0  0  0  0  0  0  0  0  0
   -6.4576    0.8450    0.2293 C   0  0  0  0  0  0  0  0  0  0  0  0
   -6.8076    2.1572    0.4009 C   0  0  0  0  0  0  0  0  0  0  0  0
   -5.6900    2.9402    0.3119 O   0  0  0  0  0  0  0  0  0  0  0  0
   -4.6226    2.1136    0.0830 C   0  0  0  0  0  0  0  0  0  0  0  0
   -5.0412    0.8064    0.0414 C   0  0  0  0  0  0  0  0  0  0  0  0
   -2.1890   -1.1250   -1.2866 C   0  0  0  0  0  0  0  0  0  0  0  0
   -2.7078   -1.8945   -2.2852 O   0  0  0  0  0  0  0  0  0  0  0  0
    1.0093    0.0452    0.1639 C   0  0  0  0  0  0  0  0  0  0  0  0
    2.1789    0.5099   -1.0201 S   0  0  0  0  0  0  0  0  0  0  0  0
    3.4248    0.7249    0.1411 C   0  0  0  0  0  0  0  0  0  0  0  0
    4.7432    1.1379   -0.1991 C   0  0  0  0  0  0  0  0  0  0  0  0
    5.1754    2.7844   -0.4717 S   0  0  0  0  0  0  0  0  0  0  0  0
    6.8261    2.3990   -0.7878 C   0  0  0  0  0  0  0  0  0  0  0  0
    6.9694    1.0586   -0.6744 C   0  0  0  0  0  0  0  0  0  0  0  0
    8.0731    0.1834   -0.8190 C   0  0  0  0  0  0  0  0  0  0  0  0
    7.7257   -1.1555   -0.5954 C   0  0  0  0  0  0  0  0  0  0  0  0
    6.0403   -1.4690   -0.1956 S   0  0  0  0  0  0  0  0  0  0  0  0
    5.8321    0.3207   -0.3451 C   0  0  0  0  0  0  0  0  0  0  0  0
    2.9703    0.4372    1.3986 C   0  0  0  0  0  0  0  0  0  0  0  0
    3.7909    0.4633    3.0094 S   0  0  0  0  0  0  0  0  0  0  0  0
    2.2389   -0.0579    3.6422 C   0  0  0  0  0  0  0  0  0  0  0  0
    1.2132   -0.2301    2.7058 C   0  0  0  0  0  0  0  0  0  0  0  0
    1.6221    0.0692    1.3760 C   0  0  0  0  0  0  0  0  0  0  0  0
   -1.6967   -2.9799   -3.7313 H   0  0  0  0  0  0  0  0  0  0  0  0
    0.6397   -2.0647   -2.5832 H   0  0  0  0  0  0  0  0  0  0  0  0
   -4.7212   -2.4796   -0.3648 H   0  0  0  0  0  0  0  0  0  0  0  0
   -7.1393   -2.3788   -0.0414 H   0  0  0  0  0  0  0  0  0  0  0  0
   -8.3848   -0.2155    0.3671 H   0  0  0  0  0  0  0  0  0  0  0  0
   -7.7338    2.6855    0.5754 H   0  0  0  0  0  0  0  0  0  0  0  0
   -3.6734    2.6176   -0.0223 H   0  0  0  0  0  0  0  0  0  0  0  0
    7.5513    3.1637   -1.0271 H   0  0  0  0  0  0  0  0  0  0  0  0
    9.0817    0.4868   -1.0714 H   0  0  0  0  0  0  0  0  0  0  0  0
    8.3854   -2.0122   -0.6437 H   0  0  0  0  0  0  0  0  0  0  0  0
    2.1710   -0.2142    4.7101 H   0  0  0  0  0  0  0  0  0  0  0  0
    0.2221   -0.5577    2.9956 H   0  0  0  0  0  0  0  0  0  0  0  0
  1  2  2  0
  2  3  1  0
  3  4  2  0
  4  5  1  0
  5  6  1  0
  6  7  1  0
  7  8  2  0
  8  9  1  0
  9 10  2  0
 10 11  1  0
 11 12  2  0
 12 13  1  0
 13 14  1  0
 14 15  2  0
  6 16  2  0
 16 17  1  0
  4 18  1  0
 18 19  1  0
 19 20  1  0
 20 21  1  0
 21 22  1  0
 22 23  1  0
 23 24  2  0
 24 25  1  0
 25 26  2  0
 26 27  1  0
 27 28  1  0
 20 29  2  0
 29 30  1  0
 30 31  1  0
 31 32  2  0
 32 33  1  0
 17  1  1  0
 33 18  2  0
 16  3  1  0
 28 21  2  0
 33 29  1  0
 15  7  1  0
 28 24  1  0
 15 11  1  0
  1 34  1  0
  2 35  1  0
  8 36  1  0
  9 37  1  0
 10 38  1  0
 12 39  1  0
 14 40  1  0
 23 41  1  0
 25 42  1  0
 26 43  1  0
 31 44  1  0
 32 45  1  0
M  END
