
     RDKit          3D

 44 50  0  0  0  0  0  0  0  0999 V2000
   -1.9510   -2.9414   -1.7943 C   0  0  0  0  0  0  0  0  0  0  0  0
   -0.7152   -2.3709   -1.4640 C   0  0  0  0  0  0  0  0  0  0  0  0
   -1.0244   -1.2935   -0.6125 C   0  0  0  0  0  0  0  0  0  0  0  0
   -0.4186   -0.3028    0.0881 C   0  0  0  0  0  0  0  0  0  0  0  0
   -1.6840    0.6003    0.8898 S   0  0  0  0  0  0  0  0  0  0  0  0
   -2.9552   -0.3621    0.2256 C   0  0  0  0  0  0  0  0  0  0  0  0
   -4.3527   -0.1655    0.5169 C   0  0  0  0  0  0  0  0  0  0  0  0
   -5.1404   -1.1092    1.2214 C   0  0  0  0  0  0  0  0  0  0  0  0
   -6.5270   -0.9240    1.5285 C   0  0  0  0  0  0  0  0  0  0  0  0
   -7.2698    0.2173    1.1593 C   0  0  0  0  0  0  0  0  0  0  0  0
   -6.4951    1.1383    0.4534 C   0  0  0  0  0  0  0  0  0  0  0  0
   -7.0113    2.3188   -0.0205 C   0  0  0  0  0  0  0  0  0  0  0  0
   -5.8209    3.2226   -0.8667 S   0  0  0  0  0  0  0  0  0  0  0  0
   -4.6133    2.0274   -0.5973 C   0  0  0  0  0  0  0  0  0  0  0  0
   -5.0948    0.9675    0.1370 C   0  0  0  0  0  0  0  0  0  0  0  0
   -2.3965   -1.3250   -0.5314 C   0  0  0  0  0  0  0  0  0  0  0  0
   -3.0384   -2.3089   -1.2215 O   0  0  0  0  0  0  0  0  0  0  0  0
    0.9892    0.0425    0.2670 C   0  0  0  0  0  0  0  0  0  0  0  0
    1.4443    1.3635    0.2653 C   0  0  0  0  0  0  0  0  0  0  0  0
    2.8050    1.6355    0.4242 C   0  0  0  0  0  0  0  0  0  0  0  0
    3.6904    0.5737    0.5783 C   0  0  0  0  0  0  0  0  0  0  0  0
    3.2814   -0.7154    0.5864 N   0  0  0  0  0  0  0  0  0  0  0  0
    1.9547   -0.9473    0.4322 C   0  0  0  0  0  0  0  0  0  0  0  0
    5.1209    0.7705    0.7518 C   0  0  0  0  0  0  0  0  0  0  0  0
    5.7734    1.9065    1.8780 S   0  0  0  0  0  0  0  0  0  0  0  0
    7.4028    1.5073    1.4906 C   0  0  0  0  0  0  0  0  0  0  0  0
    7.3799    0.5527    0.5346 C   0  0  0  0  0  0  0  0  0  0  0  0
    8.3990   -0.1376   -0.1635 C   0  0  0  0  0  0  0  0  0  0  0  0
    7.8848   -1.0486   -1.0924 C   0  0  0  0  0  0  0  0  0  0  0  0
    6.1325   -1.1470   -1.2020 S   0  0  0  0  0  0  0  0  0  0  0  0
    6.1293    0.1154    0.0944 C   0  0  0  0  0  0  0  0  0  0  0  0
   -2.2152   -3.7846   -2.4196 H   0  0  0  0  0  0  0  0  0  0  0  0
    0.2508   -2.7080   -1.8121 H   0  0  0  0  0  0  0  0  0  0  0  0
   -4.6706   -2.0355    1.5561 H   0  0  0  0  0  0  0  0  0  0  0  0
   -7.0365   -1.7159    2.0791 H   0  0  0  0  0  0  0  0  0  0  0  0
   -8.3183    0.3354    1.3991 H   0  0  0  0  0  0  0  0  0  0  0  0
   -8.0168    2.7056    0.0713 H   0  0  0  0  0  0  0  0  0  0  0  0
   -3.6236    2.1848   -1.0021 H   0  0  0  0  0  0  0  0  0  0  0  0
    0.7556    2.1935    0.1284 H   0  0  0  0  0  0  0  0  0  0  0  0
    3.1559    2.6623    0.4134 H   0  0  0  0  0  0  0  0  0  0  0  0
    1.6865   -2.0008    0.4579 H   0  0  0  0  0  0  0  0  0  0  0  0
    8.2380    1.9914    1.9769 H   0  0  0  0  0  0  0  0  0  0  0  0
    9.4627    0.0052   -0.0174 H   0  0  0  0  0  0  0  0  0  0  0  0
    8.4529   -1.6942   -1.7481 H   0  0  0  0  0  0  0  0  0  0  0  0
  1  2  2  0
  2  3  1  0
  3  4  2  0
  4  5  1  0
  5  6  1  0
  6  7  1  0
  7  8  2  0
  8  9  1  0
  9 10  2  0
 10 11  1  0
 11 12  2  0
 12 13  1  0
 13 14  1  0
 14 15  2  0
  6 16  2  0
 16 17  1  0
  4 18  1  0
 18 19  2  0
 19 20  1  0
 20 21  2  0
 21 22  1  0
 22 23  2  0
 21 24  1  0
 24 25  1  0
 25 26  1  0
 26 27  2  0
 27 28  1  0
 28 29  2  0
 29 30  1  0
 30 31  1  0
 17  1  1  0
 23 18  1  0
 31 24  2  0
 16  3  1  0
 31 27  1  0
 15  7  1  0
 15 11  1  0
  1 32  1  0
  2 33  1  0
  8 34  1  0
  9 35  1  0
 10 36  1  0
 12 37  1  0
 14 38  1  0
 19 39  1  0
 20 40  1  0
 23 41  1  0
 26 42  1  0
 28 43  1  0
 29 44  1  0
M  END
