
     RDKit          3D

 45 51  0  0  0  0  0  0  0  0999 V2000
   -2.3616   -2.4585    2.7498 C   0  0  0  0  0  0  0  0  0  0  0  0
   -1.2174   -1.9560    2.1206 C   0  0  0  0  0  0  0  0  0  0  0  0
   -1.5227   -0.9964    1.1201 C   0  0  0  0  0  0  0  0  0  0  0  0
   -0.7694   -0.2525    0.2725 C   0  0  0  0  0  0  0  0  0  0  0  0
   -1.8428    0.7039   -0.6815 S   0  0  0  0  0  0  0  0  0  0  0  0
   -3.2465    0.0680    0.0805 C   0  0  0  0  0  0  0  0  0  0  0  0
   -4.5805    0.4838   -0.2907 C   0  0  0  0  0  0  0  0  0  0  0  0
   -5.0886    1.7709   -0.0118 C   0  0  0  0  0  0  0  0  0  0  0  0
   -6.3950    2.1800   -0.3684 C   0  0  0  0  0  0  0  0  0  0  0  0
   -7.3054    1.3420   -1.0354 C   0  0  0  0  0  0  0  0  0  0  0  0
   -6.8484    0.0384   -1.3475 C   0  0  0  0  0  0  0  0  0  0  0  0
   -7.5595   -0.9065   -1.9814 N   0  0  0  0  0  0  0  0  0  0  0  0
   -6.5720   -2.2357   -2.0996 S   0  0  0  0  0  0  0  0  0  0  0  0
   -5.1974   -1.6720   -1.3634 N   0  0  0  0  0  0  0  0  0  0  0  0
   -5.4540   -0.4102   -0.9728 C   0  0  0  0  0  0  0  0  0  0  0  0
   -2.9079   -0.8407    1.0451 C   0  0  0  0  0  0  0  0  0  0  0  0
   -3.9020   -1.8211    2.1920 S   0  0  0  0  0  0  0  0  0  0  0  0
    0.6626   -0.1585    0.0789 C   0  0  0  0  0  0  0  0  0  0  0  0
    1.3201   -0.5800   -1.0991 C   0  0  0  0  0  0  0  0  0  0  0  0
    2.7363   -0.5086   -1.2869 C   0  0  0  0  0  0  0  0  0  0  0  0
    3.6491   -0.0134   -0.3190 C   0  0  0  0  0  0  0  0  0  0  0  0
    5.0881    0.0389   -0.5320 C   0  0  0  0  0  0  0  0  0  0  0  0
    5.6544    0.8792   -1.4969 C   0  0  0  0  0  0  0  0  0  0  0  0
    7.0356    0.9032   -1.6808 C   0  0  0  0  0  0  0  0  0  0  0  0
    7.8177    0.0773   -0.8916 C   0  0  0  0  0  0  0  0  0  0  0  0
    7.3178   -0.7538    0.0462 N   0  0  0  0  0  0  0  0  0  0  0  0
    5.9714   -0.7557    0.1991 C   0  0  0  0  0  0  0  0  0  0  0  0
    2.9899    0.4169    0.8507 C   0  0  0  0  0  0  0  0  0  0  0  0
    3.6259    0.9795    1.9346 C   0  0  0  0  0  0  0  0  0  0  0  0
    2.5199    1.4024    3.1775 S   0  0  0  0  0  0  0  0  0  0  0  0
    1.1727    0.8573    2.2647 C   0  0  0  0  0  0  0  0  0  0  0  0
    1.5524    0.3470    1.0438 C   0  0  0  0  0  0  0  0  0  0  0  0
   -2.3934   -3.1963    3.5402 H   0  0  0  0  0  0  0  0  0  0  0  0
   -0.2184   -2.2804    2.3867 H   0  0  0  0  0  0  0  0  0  0  0  0
   -4.4513    2.4876    0.5084 H   0  0  0  0  0  0  0  0  0  0  0  0
   -6.7108    3.1921   -0.1126 H   0  0  0  0  0  0  0  0  0  0  0  0
   -8.3035    1.6692   -1.3014 H   0  0  0  0  0  0  0  0  0  0  0  0
    0.7232   -0.9934   -1.9137 H   0  0  0  0  0  0  0  0  0  0  0  0
    3.1328   -0.8727   -2.2369 H   0  0  0  0  0  0  0  0  0  0  0  0
    5.0230    1.5248   -2.1032 H   0  0  0  0  0  0  0  0  0  0  0  0
    7.4894    1.5525   -2.4211 H   0  0  0  0  0  0  0  0  0  0  0  0
    8.8988    0.0613   -0.9966 H   0  0  0  0  0  0  0  0  0  0  0  0
    5.6071   -1.4458    0.9568 H   0  0  0  0  0  0  0  0  0  0  0  0
    4.6790    1.1787    2.0809 H   0  0  0  0  0  0  0  0  0  0  0  0
    0.1813    0.9533    2.6858 H   0  0  0  0  0  0  0  0  0  0  0  0
  1  2  2  0
  2  3  1  0
  3  4  2  0
  4  5  1  0
  5  6  1  0
  6  7  1  0
  7  8  2  0
  8  9  1  0
  9 10  2  0
 10 11  1  0
 11 12  2  0
 12 13  1  0
 13 14  1  0
 14 15  2  0
  6 16  2  0
 16 17  1  0
  4 18  1  0
 18 19  2  0
 19 20  1  0
 20 21  2  0
 21 22  1  0
 22 23  2  0
 23 24  1  0
 24 25  2  0
 25 26  1  0
 26 27  2  0
 21 28  1  0
 28 29  2  0
 29 30  1  0
 30 31  1  0
 31 32  2  0
 17  1  1  0
 32 18  1  0
 16  3  1  0
 27 22  1  0
 32 28  1  0
 15  7  1  0
 15 11  1  0
  1 33  1  0
  2 34  1  0
  8 35  1  0
  9 36  1  0
 10 37  1  0
 19 38  1  0
 20 39  1  0
 23 40  1  0
 24 41  1  0
 25 42  1  0
 27 43  1  0
 29 44  1  0
 31 45  1  0
M  END
