
     RDKit          3D

 41 46  0  0  0  0  0  0  0  0999 V2000
   -1.1628   -2.9804   -2.7179 Si  0  0  0  0  0  4  0  0  0  0  0  0
   -2.3714   -1.9794   -1.7139 C   0  0  0  0  0  0  0  0  0  0  0  0
   -1.7607   -1.0776   -0.9180 C   0  0  0  0  0  0  0  0  0  0  0  0
   -2.3712   -0.1338   -0.0061 C   0  0  0  0  0  0  0  0  0  0  0  0
   -3.7727    0.0723    0.3242 C   0  0  0  0  0  0  0  0  0  0  0  0
   -4.9762   -0.5566   -0.0998 C   0  0  0  0  0  0  0  0  0  0  0  0
   -6.2283   -0.1534    0.3814 C   0  0  0  0  0  0  0  0  0  0  0  0
   -6.3248    0.8801    1.2949 C   0  0  0  0  0  0  0  0  0  0  0  0
   -5.1735    1.5226    1.7424 C   0  0  0  0  0  0  0  0  0  0  0  0
   -3.9147    1.1101    1.2540 C   0  0  0  0  0  0  0  0  0  0  0  0
   -2.4041    1.7810    1.7008 S   0  0  0  0  0  0  0  0  0  0  0  0
   -1.5295    0.7276    0.6913 C   0  0  0  0  0  0  0  0  0  0  0  0
   -0.0500    0.7615    0.6009 C   0  0  0  0  0  0  0  0  0  0  0  0
    0.7415    1.6603    1.3357 C   0  0  0  0  0  0  0  0  0  0  0  0
    2.1345    1.6514    1.2239 C   0  0  0  0  0  0  0  0  0  0  0  0
    2.7714    0.7402    0.3808 C   0  0  0  0  0  0  0  0  0  0  0  0
    1.9916   -0.1527   -0.3654 C   0  0  0  0  0  0  0  0  0  0  0  0
    0.5875   -0.1578   -0.2664 C   0  0  0  0  0  0  0  0  0  0  0  0
   -0.2687   -1.0927   -1.0452 C   0  0  0  0  0  0  0  0  0  0  0  0
    0.2052   -2.0074   -1.9200 C   0  0  0  0  0  0  0  0  0  0  0  0
    4.2252    0.7439    0.2710 C   0  0  0  0  0  0  0  0  0  0  0  0
    4.9958    1.7520   -0.1884 C   0  0  0  0  0  0  0  0  0  0  0  0
    6.4276    1.4933   -0.1798 C   0  0  0  0  0  0  0  0  0  0  0  0
    6.7905    0.2860    0.2904 C   0  0  0  0  0  0  0  0  0  0  0  0
    5.2895   -0.7263    0.8081 Si  0  0  0  0  0  4  0  0  0  0  0  0
   -1.2784   -2.7168   -4.1720 H   0  0  0  0  0  0  0  0  0  0  0  0
   -1.1488   -4.4101   -2.3266 H   0  0  0  0  0  0  0  0  0  0  0  0
   -3.4177   -2.1781   -1.8362 H   0  0  0  0  0  0  0  0  0  0  0  0
   -4.9595   -1.3742   -0.8089 H   0  0  0  0  0  0  0  0  0  0  0  0
   -7.1266   -0.6579    0.0338 H   0  0  0  0  0  0  0  0  0  0  0  0
   -7.2974    1.1916    1.6670 H   0  0  0  0  0  0  0  0  0  0  0  0
   -5.2450    2.3332    2.4628 H   0  0  0  0  0  0  0  0  0  0  0  0
    0.2951    2.3857    2.0105 H   0  0  0  0  0  0  0  0  0  0  0  0
    2.7166    2.3606    1.8089 H   0  0  0  0  0  0  0  0  0  0  0  0
    2.4932   -0.8405   -1.0398 H   0  0  0  0  0  0  0  0  0  0  0  0
    1.2277   -2.2112   -2.1900 H   0  0  0  0  0  0  0  0  0  0  0  0
    4.6087    2.6973   -0.5499 H   0  0  0  0  0  0  0  0  0  0  0  0
    7.1290    2.2390   -0.5336 H   0  0  0  0  0  0  0  0  0  0  0  0
    7.7924   -0.1024    0.3818 H   0  0  0  0  0  0  0  0  0  0  0  0
    5.0971   -1.9164   -0.0595 H   0  0  0  0  0  0  0  0  0  0  0  0
    5.2619   -0.9638    2.2729 H   0  0  0  0  0  0  0  0  0  0  0  0
  1  2  1  0
  2  3  2  0
  3  4  1  0
  4  5  1  0
  5  6  2  0
  6  7  1  0
  7  8  2  0
  8  9  1  0
  9 10  2  0
 10 11  1  0
 11 12  1  0
 12 13  1  0
 13 14  2  0
 14 15  1  0
 15 16  2  0
 16 17  1  0
 17 18  2  0
 18 19  1  0
 19 20  2  0
 16 21  1  0
 21 22  2  0
 22 23  1  0
 23 24  2  0
 24 25  1  0
 20  1  1  0
 25 21  1  0
 19  3  1  0
 12  4  2  0
 18 13  1  0
 10  5  1  0
  1 26  1  0
  1 27  1  0
  2 28  1  0
  6 29  1  0
  7 30  1  0
  8 31  1  0
  9 32  1  0
 14 33  1  0
 15 34  1  0
 17 35  1  0
 20 36  1  0
 22 37  1  0
 23 38  1  0
 24 39  1  0
 25 40  1  0
 25 41  1  0
M  END
