
     RDKit          3D

 47 53  0  0  0  0  0  0  0  0999 V2000
    2.9239   -2.3975    2.7244 C   0  0  0  0  0  0  0  0  0  0  0  0
    1.7558   -1.8689    2.1647 C   0  0  0  0  0  0  0  0  0  0  0  0
    2.1952   -0.9416    1.1988 C   0  0  0  0  0  0  0  0  0  0  0  0
    1.7045   -0.0677    0.2847 C   0  0  0  0  0  0  0  0  0  0  0  0
    3.0813    0.6803   -0.4865 S   0  0  0  0  0  0  0  0  0  0  0  0
    4.2437   -0.2174    0.4275 C   0  0  0  0  0  0  0  0  0  0  0  0
    5.6795   -0.0923    0.2560 C   0  0  0  0  0  0  0  0  0  0  0  0
    6.3056    1.1400    0.0819 C   0  0  0  0  0  0  0  0  0  0  0  0
    7.6879    1.1744   -0.0888 C   0  0  0  0  0  0  0  0  0  0  0  0
    8.4038   -0.0160   -0.0827 C   0  0  0  0  0  0  0  0  0  0  0  0
    7.7040   -1.1970    0.0936 C   0  0  0  0  0  0  0  0  0  0  0  0
    6.3653   -1.2603    0.2584 N   0  0  0  0  0  0  0  0  0  0  0  0
    3.5679   -1.0222    1.2714 C   0  0  0  0  0  0  0  0  0  0  0  0
    4.0886   -1.8822    2.1929 O   0  0  0  0  0  0  0  0  0  0  0  0
    0.3527    0.2756   -0.0403 C   0  0  0  0  0  0  0  0  0  0  0  0
   -0.9597    0.2355    1.1008 S   0  0  0  0  0  0  0  0  0  0  0  0
   -2.1425    0.7689   -0.0556 C   0  0  0  0  0  0  0  0  0  0  0  0
   -3.5419    0.9368    0.3296 C   0  0  0  0  0  0  0  0  0  0  0  0
   -3.8807    2.0631    1.0982 C   0  0  0  0  0  0  0  0  0  0  0  0
   -5.1989    2.2934    1.4763 C   0  0  0  0  0  0  0  0  0  0  0  0
   -6.1953    1.4020    1.0878 C   0  0  0  0  0  0  0  0  0  0  0  0
   -5.8908    0.2675    0.3201 C   0  0  0  0  0  0  0  0  0  0  0  0
   -6.9125   -0.6192   -0.0591 C   0  0  0  0  0  0  0  0  0  0  0  0
   -6.6340   -1.7557   -0.8166 C   0  0  0  0  0  0  0  0  0  0  0  0
   -5.3281   -2.0226   -1.2038 C   0  0  0  0  0  0  0  0  0  0  0  0
   -4.3010   -1.1509   -0.8353 C   0  0  0  0  0  0  0  0  0  0  0  0
   -4.5509    0.0154   -0.0711 C   0  0  0  0  0  0  0  0  0  0  0  0
   -1.5048    0.9501   -1.2335 C   0  0  0  0  0  0  0  0  0  0  0  0
   -1.7733    1.3381   -2.5563 C   0  0  0  0  0  0  0  0  0  0  0  0
   -0.5400    1.2566   -3.2124 C   0  0  0  0  0  0  0  0  0  0  0  0
    0.5047    0.8436   -2.4069 O   0  0  0  0  0  0  0  0  0  0  0  0
   -0.1562    0.6830   -1.2247 C   0  0  0  0  0  0  0  0  0  0  0  0
    3.0869   -3.1367    3.4976 H   0  0  0  0  0  0  0  0  0  0  0  0
    0.7464   -2.1390    2.4390 H   0  0  0  0  0  0  0  0  0  0  0  0
    5.7385    2.0648    0.0859 H   0  0  0  0  0  0  0  0  0  0  0  0
    8.1995    2.1231   -0.2234 H   0  0  0  0  0  0  0  0  0  0  0  0
    9.4802   -0.0244   -0.2111 H   0  0  0  0  0  0  0  0  0  0  0  0
    8.2153   -2.1554    0.1075 H   0  0  0  0  0  0  0  0  0  0  0  0
   -3.1125    2.7716    1.4020 H   0  0  0  0  0  0  0  0  0  0  0  0
   -5.4509    3.1673    2.0714 H   0  0  0  0  0  0  0  0  0  0  0  0
   -7.2209    1.6004    1.3930 H   0  0  0  0  0  0  0  0  0  0  0  0
   -7.9424   -0.4305    0.2372 H   0  0  0  0  0  0  0  0  0  0  0  0
   -7.4366   -2.4313   -1.1000 H   0  0  0  0  0  0  0  0  0  0  0  0
   -5.1025   -2.9097   -1.7901 H   0  0  0  0  0  0  0  0  0  0  0  0
   -3.2902   -1.4001   -1.1513 H   0  0  0  0  0  0  0  0  0  0  0  0
   -2.7147    1.6330   -2.9977 H   0  0  0  0  0  0  0  0  0  0  0  0
   -0.2500    1.4543   -4.2362 H   0  0  0  0  0  0  0  0  0  0  0  0
  1  2  2  0
  2  3  1  0
  3  4  2  0
  4  5  1  0
  5  6  1  0
  6  7  1  0
  7  8  2  0
  8  9  1  0
  9 10  2  0
 10 11  1  0
 11 12  2  0
  6 13  2  0
 13 14  1  0
  4 15  1  0
 15 16  1  0
 16 17  1  0
 17 18  1  0
 18 19  2  0
 19 20  1  0
 20 21  2  0
 21 22  1  0
 22 23  2  0
 23 24  1  0
 24 25  2  0
 25 26  1  0
 26 27  2  0
 17 28  2  0
 28 29  1  0
 29 30  2  0
 30 31  1  0
 31 32  1  0
 14  1  1  0
 32 15  2  0
 13  3  1  0
 27 18  1  0
 32 28  1  0
 12  7  1  0
 27 22  1  0
  1 33  1  0
  2 34  1  0
  8 35  1  0
  9 36  1  0
 10 37  1  0
 11 38  1  0
 19 39  1  0
 20 40  1  0
 21 41  1  0
 23 42  1  0
 24 43  1  0
 25 44  1  0
 26 45  1  0
 29 46  1  0
 30 47  1  0
M  END
