
     RDKit          3D

 41 47  0  0  0  0  0  0  0  0999 V2000
    3.0989    2.7714    1.1772 C   0  0  0  0  0  0  0  0  0  0  0  0
    1.7370    2.4405    1.1361 C   0  0  0  0  0  0  0  0  0  0  0  0
    1.6467    1.3775    0.2167 C   0  0  0  0  0  0  0  0  0  0  0  0
    0.7352    0.5422   -0.3377 C   0  0  0  0  0  0  0  0  0  0  0  0
    1.5918   -0.4995   -1.4502 S   0  0  0  0  0  0  0  0  0  0  0  0
    3.1288    0.1939   -1.0832 C   0  0  0  0  0  0  0  0  0  0  0  0
    4.3660   -0.2657   -1.6486 C   0  0  0  0  0  0  0  0  0  0  0  0
    4.8159    0.0452   -2.9316 C   0  0  0  0  0  0  0  0  0  0  0  0
    5.9855   -0.3653   -3.5276 N   0  0  0  0  0  0  0  0  0  0  0  0
    6.8636   -1.1757   -2.8554 C   0  0  0  0  0  0  0  0  0  0  0  0
    6.5377   -1.5769   -1.5330 C   0  0  0  0  0  0  0  0  0  0  0  0
    7.2734   -2.3597   -0.7258 N   0  0  0  0  0  0  0  0  0  0  0  0
    6.4175   -2.4936    0.6797 S   0  0  0  0  0  0  0  0  0  0  0  0
    5.0771   -1.5850    0.3334 N   0  0  0  0  0  0  0  0  0  0  0  0
    5.2475   -1.1060   -0.9139 C   0  0  0  0  0  0  0  0  0  0  0  0
    2.9451    1.1874   -0.1921 C   0  0  0  0  0  0  0  0  0  0  0  0
    3.8955    2.0007    0.3488 O   0  0  0  0  0  0  0  0  0  0  0  0
   -0.6945    0.3848   -0.1096 C   0  0  0  0  0  0  0  0  0  0  0  0
   -1.1916    0.2049    1.1894 C   0  0  0  0  0  0  0  0  0  0  0  0
   -2.5621    0.0422    1.3905 C   0  0  0  0  0  0  0  0  0  0  0  0
   -3.4222    0.0785    0.2865 C   0  0  0  0  0  0  0  0  0  0  0  0
   -2.9676    0.2875   -0.9803 N   0  0  0  0  0  0  0  0  0  0  0  0
   -1.6253    0.4161   -1.1524 C   0  0  0  0  0  0  0  0  0  0  0  0
   -4.8624   -0.0597    0.4218 C   0  0  0  0  0  0  0  0  0  0  0  0
   -5.7921    0.8257   -0.1632 C   0  0  0  0  0  0  0  0  0  0  0  0
   -7.1642    0.7992   -0.0405 N   0  0  0  0  0  0  0  0  0  0  0  0
   -7.7850   -0.1795    0.6845 C   0  0  0  0  0  0  0  0  0  0  0  0
   -6.9816   -1.1669    1.3021 C   0  0  0  0  0  0  0  0  0  0  0  0
   -7.4104   -2.2127    2.0447 N   0  0  0  0  0  0  0  0  0  0  0  0
   -6.0588   -3.0923    2.4551 S   0  0  0  0  0  0  0  0  0  0  0  0
   -4.8664   -2.1252    1.8207 N   0  0  0  0  0  0  0  0  0  0  0  0
   -5.4797   -1.1014    1.1678 C   0  0  0  0  0  0  0  0  0  0  0  0
    3.6482    3.5209    1.7398 H   0  0  0  0  0  0  0  0  0  0  0  0
    0.9498    2.9184    1.7025 H   0  0  0  0  0  0  0  0  0  0  0  0
    4.2120    0.6749   -3.5700 H   0  0  0  0  0  0  0  0  0  0  0  0
    7.7690   -1.4729   -3.3700 H   0  0  0  0  0  0  0  0  0  0  0  0
   -0.5210    0.1720    2.0512 H   0  0  0  0  0  0  0  0  0  0  0  0
   -2.9473   -0.1026    2.4061 H   0  0  0  0  0  0  0  0  0  0  0  0
   -1.3161    0.5536   -2.1938 H   0  0  0  0  0  0  0  0  0  0  0  0
   -5.4283    1.6614   -0.7740 H   0  0  0  0  0  0  0  0  0  0  0  0
   -8.8656   -0.1584    0.7490 H   0  0  0  0  0  0  0  0  0  0  0  0
  1  2  2  0
  2  3  1  0
  3  4  2  0
  4  5  1  0
  5  6  1  0
  6  7  1  0
  7  8  2  0
  8  9  1  0
  9 10  2  0
 10 11  1  0
 11 12  2  0
 12 13  1  0
 13 14  1  0
 14 15  2  0
  6 16  2  0
 16 17  1  0
  4 18  1  0
 18 19  2  0
 19 20  1  0
 20 21  2  0
 21 22  1  0
 22 23  2  0
 21 24  1  0
 24 25  2  0
 25 26  1  0
 26 27  2  0
 27 28  1  0
 28 29  2  0
 29 30  1  0
 30 31  1  0
 31 32  2  0
 17  1  1  0
 23 18  1  0
 32 24  1  0
 16  3  1  0
 32 28  1  0
 15  7  1  0
 15 11  1  0
  1 33  1  0
  2 34  1  0
  8 35  1  0
 10 36  1  0
 19 37  1  0
 20 38  1  0
 23 39  1  0
 25 40  1  0
 27 41  1  0
M  END
