
     RDKit          3D

 38 44  0  0  0  0  0  0  0  0999 V2000
    5.9488    2.2919    0.3862 C   0  0  0  0  0  0  0  0  0  0  0  0
    4.5690    2.0498    0.2151 C   0  0  0  0  0  0  0  0  0  0  0  0
    4.3296    0.6927    0.5640 C   0  0  0  0  0  0  0  0  0  0  0  0
    3.3282   -0.2185    0.6516 C   0  0  0  0  0  0  0  0  0  0  0  0
    4.0742   -1.7034    1.2092 S   0  0  0  0  0  0  0  0  0  0  0  0
    5.6686   -1.0297    1.2934 C   0  0  0  0  0  0  0  0  0  0  0  0
    5.5891    0.2578    0.9089 C   0  0  0  0  0  0  0  0  0  0  0  0
    6.6160    1.1528    0.8305 N   0  0  0  0  0  0  0  0  0  0  0  0
    1.8897   -0.1100    0.3694 C   0  0  0  0  0  0  0  0  0  0  0  0
    0.9908   -1.1659    0.5166 C   0  0  0  0  0  0  0  0  0  0  0  0
   -0.3672   -0.9424    0.2154 C   0  0  0  0  0  0  0  0  0  0  0  0
   -1.4434   -1.8707    0.2949 C   0  0  0  0  0  0  0  0  0  0  0  0
   -1.4007   -3.1904    0.6824 C   0  0  0  0  0  0  0  0  0  0  0  0
   -2.6577   -3.7485    0.6238 O   0  0  0  0  0  0  0  0  0  0  0  0
   -3.5297   -2.7774    0.1920 C   0  0  0  0  0  0  0  0  0  0  0  0
   -2.8028   -1.6500   -0.0058 C   0  0  0  0  0  0  0  0  0  0  0  0
   -3.1199   -0.3562   -0.4337 C   0  0  0  0  0  0  0  0  0  0  0  0
   -4.3319    0.1850   -0.8010 C   0  0  0  0  0  0  0  0  0  0  0  0
   -5.6719   -0.0137   -0.9775 N   0  0  0  0  0  0  0  0  0  0  0  0
   -6.2145    1.1793   -1.4157 C   0  0  0  0  0  0  0  0  0  0  0  0
   -5.2290    2.1480   -1.5227 C   0  0  0  0  0  0  0  0  0  0  0  0
   -4.0597    1.4779   -1.1258 C   0  0  0  0  0  0  0  0  0  0  0  0
   -2.7258    1.7771   -0.9792 O   0  0  0  0  0  0  0  0  0  0  0  0
   -2.1466    0.6034   -0.5402 C   0  0  0  0  0  0  0  0  0  0  0  0
   -0.7817    0.3486   -0.2287 C   0  0  0  0  0  0  0  0  0  0  0  0
    0.1925    1.3324   -0.3420 C   0  0  0  0  0  0  0  0  0  0  0  0
    1.5006    1.1247   -0.0540 N   0  0  0  0  0  0  0  0  0  0  0  0
    6.5124    3.2013    0.2227 H   0  0  0  0  0  0  0  0  0  0  0  0
    3.8381    2.7742   -0.1209 H   0  0  0  0  0  0  0  0  0  0  0  0
    6.5289   -1.6029    1.6085 H   0  0  0  0  0  0  0  0  0  0  0  0
    7.5940    1.0026    1.0443 H   0  0  0  0  0  0  0  0  0  0  0  0
    1.3150   -2.1423    0.8543 H   0  0  0  0  0  0  0  0  0  0  0  0
   -0.6208   -3.8626    1.0120 H   0  0  0  0  0  0  0  0  0  0  0  0
   -4.5627   -3.0767    0.0980 H   0  0  0  0  0  0  0  0  0  0  0  0
   -6.1498   -0.8903   -0.8085 H   0  0  0  0  0  0  0  0  0  0  0  0
   -7.2765    1.2389   -1.6182 H   0  0  0  0  0  0  0  0  0  0  0  0
   -5.3435    3.1747   -1.8383 H   0  0  0  0  0  0  0  0  0  0  0  0
   -0.0501    2.3385   -0.6741 H   0  0  0  0  0  0  0  0  0  0  0  0
  1  2  2  0
  2  3  1  0
  3  4  2  0
  4  5  1  0
  5  6  1  0
  6  7  2  0
  7  8  1  0
  4  9  1  0
  9 10  2  0
 10 11  1  0
 11 12  1  0
 12 13  2  0
 13 14  1  0
 14 15  1  0
 15 16  2  0
 16 17  1  0
 17 18  1  0
 18 19  1  0
 19 20  1  0
 20 21  2  0
 21 22  1  0
 22 23  1  0
 23 24  1  0
 24 25  1  0
 25 26  1  0
 26 27  2  0
  8  1  1  0
 27  9  1  0
  7  3  1  0
 25 11  2  0
 16 12  1  0
 24 17  2  0
 22 18  2  0
  1 28  1  0
  2 29  1  0
  6 30  1  0
  8 31  1  0
 10 32  1  0
 13 33  1  0
 15 34  1  0
 19 35  1  0
 20 36  1  0
 21 37  1  0
 26 38  1  0
M  END
