
     RDKit          3D

 41 47  0  0  0  0  0  0  0  0999 V2000
    5.0601    2.7289    0.1756 C   0  0  0  0  0  0  0  0  0  0  0  0
    3.8279    2.0426    0.1196 C   0  0  0  0  0  0  0  0  0  0  0  0
    4.1130    0.6469    0.1487 C   0  0  0  0  0  0  0  0  0  0  0  0
    3.5231   -0.5742    0.1312 C   0  0  0  0  0  0  0  0  0  0  0  0
    4.8077   -1.7576    0.2093 S   0  0  0  0  0  0  0  0  0  0  0  0
    6.0684   -0.5717    0.2615 C   0  0  0  0  0  0  0  0  0  0  0  0
    5.4904    0.6440    0.2193 C   0  0  0  0  0  0  0  0  0  0  0  0
    6.1343    1.8465    0.2398 N   0  0  0  0  0  0  0  0  0  0  0  0
    2.1398   -0.9571    0.0643 C   0  0  0  0  0  0  0  0  0  0  0  0
    1.5604   -2.2172    0.0477 C   0  0  0  0  0  0  0  0  0  0  0  0
    0.1860   -1.9947   -0.0250 C   0  0  0  0  0  0  0  0  0  0  0  0
   -0.8863   -2.9295   -0.0702 C   0  0  0  0  0  0  0  0  0  0  0  0
   -0.7523   -4.2864   -0.0493 C   0  0  0  0  0  0  0  0  0  0  0  0
   -2.3189   -4.9952   -0.1221 S   0  0  0  0  0  0  0  0  0  0  0  0
   -3.0983   -3.4517   -0.1781 C   0  0  0  0  0  0  0  0  0  0  0  0
   -2.2006   -2.4040   -0.1430 C   0  0  0  0  0  0  0  0  0  0  0  0
   -2.5736   -1.0294   -0.1764 C   0  0  0  0  0  0  0  0  0  0  0  0
   -3.8863   -0.5030   -0.2491 C   0  0  0  0  0  0  0  0  0  0  0  0
   -4.1035    0.8844   -0.2746 C   0  0  0  0  0  0  0  0  0  0  0  0
   -5.3936    1.4236   -0.3463 C   0  0  0  0  0  0  0  0  0  0  0  0
   -5.5427    2.8013   -0.3682 C   0  0  0  0  0  0  0  0  0  0  0  0
   -4.5124    3.6694   -0.3245 N   0  0  0  0  0  0  0  0  0  0  0  0
   -3.2727    3.1311   -0.2554 C   0  0  0  0  0  0  0  0  0  0  0  0
   -3.0002    1.7610   -0.2272 C   0  0  0  0  0  0  0  0  0  0  0  0
   -1.6894    1.2507   -0.1548 C   0  0  0  0  0  0  0  0  0  0  0  0
   -1.4596   -0.1379   -0.1286 C   0  0  0  0  0  0  0  0  0  0  0  0
   -0.1245   -0.6485   -0.0549 C   0  0  0  0  0  0  0  0  0  0  0  0
    1.1121   -0.0326    0.0021 N   0  0  0  0  0  0  0  0  0  0  0  0
    5.2565    3.7937    0.1745 H   0  0  0  0  0  0  0  0  0  0  0  0
    2.8645    2.5285    0.0652 H   0  0  0  0  0  0  0  0  0  0  0  0
    7.1145   -0.8369    0.3179 H   0  0  0  0  0  0  0  0  0  0  0  0
    7.1310    2.0200    0.2890 H   0  0  0  0  0  0  0  0  0  0  0  0
    2.0840   -3.1628    0.0843 H   0  0  0  0  0  0  0  0  0  0  0  0
    0.1361   -4.8995    0.0026 H   0  0  0  0  0  0  0  0  0  0  0  0
   -4.1768   -3.4270   -0.2336 H   0  0  0  0  0  0  0  0  0  0  0  0
   -4.7381   -1.1765   -0.2857 H   0  0  0  0  0  0  0  0  0  0  0  0
   -6.2722    0.7884   -0.3847 H   0  0  0  0  0  0  0  0  0  0  0  0
   -6.5283    3.2551   -0.4234 H   0  0  0  0  0  0  0  0  0  0  0  0
   -2.4711    3.8645   -0.2219 H   0  0  0  0  0  0  0  0  0  0  0  0
   -0.8565    1.9473   -0.1193 H   0  0  0  0  0  0  0  0  0  0  0  0
    1.2481    0.9654   -0.0013 H   0  0  0  0  0  0  0  0  0  0  0  0
  1  2  2  0
  2  3  1  0
  3  4  2  0
  4  5  1  0
  5  6  1  0
  6  7  2  0
  7  8  1  0
  4  9  1  0
  9 10  2  0
 10 11  1  0
 11 12  1  0
 12 13  2  0
 13 14  1  0
 14 15  1  0
 15 16  2  0
 16 17  1  0
 17 18  2  0
 18 19  1  0
 19 20  2  0
 20 21  1  0
 21 22  2  0
 22 23  1  0
 23 24  2  0
 24 25  1  0
 25 26  2  0
 26 27  1  0
 27 28  1  0
  8  1  1  0
 28  9  1  0
  7  3  1  0
 27 11  2  0
 16 12  1  0
 26 17  1  0
 24 19  1  0
  1 29  1  0
  2 30  1  0
  6 31  1  0
  8 32  1  0
 10 33  1  0
 13 34  1  0
 15 35  1  0
 18 36  1  0
 20 37  1  0
 21 38  1  0
 23 39  1  0
 25 40  1  0
 28 41  1  0
M  END
