
     RDKit          3D

 42 49  0  0  0  0  0  0  0  0999 V2000
    6.0448   -0.2839   -1.5161 C   0  0  0  0  0  0  0  0  0  0  0  0
    4.6364   -0.2199   -1.4390 C   0  0  0  0  0  0  0  0  0  0  0  0
    4.2992   -0.0859   -0.0671 C   0  0  0  0  0  0  0  0  0  0  0  0
    3.2329    0.0340    0.7553 C   0  0  0  0  0  0  0  0  0  0  0  0
    3.8498    0.1242    2.3834 S   0  0  0  0  0  0  0  0  0  0  0  0
    5.5118    0.0292    1.8852 C   0  0  0  0  0  0  0  0  0  0  0  0
    5.5329   -0.0833    0.5424 C   0  0  0  0  0  0  0  0  0  0  0  0
    6.6335   -0.1971   -0.2553 N   0  0  0  0  0  0  0  0  0  0  0  0
    1.8127    0.0343    0.4882 C   0  0  0  0  0  0  0  0  0  0  0  0
    1.1456   -0.9590   -0.2513 C   0  0  0  0  0  0  0  0  0  0  0  0
   -0.2806   -0.9432   -0.5464 C   0  0  0  0  0  0  0  0  0  0  0  0
   -0.8159   -1.9520   -1.4109 C   0  0  0  0  0  0  0  0  0  0  0  0
   -0.1093   -2.9452   -1.9853 N   0  0  0  0  0  0  0  0  0  0  0  0
   -1.1501   -3.8063   -2.9349 S   0  0  0  0  0  0  0  0  0  0  0  0
   -2.5526   -2.9762   -2.6678 N   0  0  0  0  0  0  0  0  0  0  0  0
   -2.2735   -1.9811   -1.8026 C   0  0  0  0  0  0  0  0  0  0  0  0
   -3.2236   -1.0481   -1.2710 C   0  0  0  0  0  0  0  0  0  0  0  0
   -4.6088   -1.1543   -1.6870 C   0  0  0  0  0  0  0  0  0  0  0  0
   -5.6509   -0.3711   -1.1710 C   0  0  0  0  0  0  0  0  0  0  0  0
   -5.1944    0.4504   -0.1502 C   0  0  0  0  0  0  0  0  0  0  0  0
   -6.0725    1.2064    0.5880 C   0  0  0  0  0  0  0  0  0  0  0  0
   -5.2749    1.9853    1.8874 S   0  0  0  0  0  0  0  0  0  0  0  0
   -3.7621    1.2926    1.4561 C   0  0  0  0  0  0  0  0  0  0  0  0
   -3.8148    0.5849    0.2755 C   0  0  0  0  0  0  0  0  0  0  0  0
   -2.6944   -0.0897   -0.3234 C   0  0  0  0  0  0  0  0  0  0  0  0
   -1.2403    0.0392   -0.0792 C   0  0  0  0  0  0  0  0  0  0  0  0
   -0.4803    1.0784    0.5436 C   0  0  0  0  0  0  0  0  0  0  0  0
   -0.8849    2.3580    0.8420 C   0  0  0  0  0  0  0  0  0  0  0  0
    0.1435    3.0764    1.3781 O   0  0  0  0  0  0  0  0  0  0  0  0
    1.2502    2.2827    1.3550 C   0  0  0  0  0  0  0  0  0  0  0  0
    0.9336    1.0638    0.8103 C   0  0  0  0  0  0  0  0  0  0  0  0
    6.6822   -0.3857   -2.3853 H   0  0  0  0  0  0  0  0  0  0  0  0
    3.9607   -0.2644   -2.2830 H   0  0  0  0  0  0  0  0  0  0  0  0
    6.3313    0.0548    2.5893 H   0  0  0  0  0  0  0  0  0  0  0  0
    7.6074   -0.2136    0.0213 H   0  0  0  0  0  0  0  0  0  0  0  0
    1.7437   -1.7874   -0.6393 H   0  0  0  0  0  0  0  0  0  0  0  0
   -4.8729   -1.8995   -2.4410 H   0  0  0  0  0  0  0  0  0  0  0  0
   -6.6796   -0.4779   -1.4884 H   0  0  0  0  0  0  0  0  0  0  0  0
   -7.1423    1.3139    0.4697 H   0  0  0  0  0  0  0  0  0  0  0  0
   -2.9333    1.4482    2.1296 H   0  0  0  0  0  0  0  0  0  0  0  0
   -1.7998    2.9200    0.7236 H   0  0  0  0  0  0  0  0  0  0  0  0
    2.1597    2.7483    1.7086 H   0  0  0  0  0  0  0  0  0  0  0  0
  1  2  2  0
  2  3  1  0
  3  4  2  0
  4  5  1  0
  5  6  1  0
  6  7  2  0
  7  8  1  0
  4  9  1  0
  9 10  2  0
 10 11  1  0
 11 12  1  0
 12 13  2  0
 13 14  1  0
 14 15  1  0
 15 16  2  0
 16 17  1  0
 17 18  1  0
 18 19  2  0
 19 20  1  0
 20 21  2  0
 21 22  1  0
 22 23  1  0
 23 24  2  0
 24 25  1  0
 25 26  1  0
 26 27  1  0
 27 28  2  0
 28 29  1  0
 29 30  1  0
 30 31  2  0
  8  1  1  0
 31  9  1  0
  7  3  1  0
 26 11  2  0
 31 27  1  0
 16 12  1  0
 25 17  2  0
 24 20  1  0
  1 32  1  0
  2 33  1  0
  6 34  1  0
  8 35  1  0
 10 36  1  0
 18 37  1  0
 19 38  1  0
 21 39  1  0
 23 40  1  0
 28 41  1  0
 30 42  1  0
M  END
