
     RDKit          3D

 35 40  0  0  0  0  0  0  0  0999 V2000
   -1.5713    3.7064   -1.2014 Si  0  0  0  0  0  4  0  0  0  0  0  0
   -2.6771    2.2933   -0.7119 C   0  0  0  0  0  0  0  0  0  0  0  0
   -1.9635    1.2160   -0.3321 C   0  0  0  0  0  0  0  0  0  0  0  0
   -2.4709   -0.0410    0.1054 C   0  0  0  0  0  0  0  0  0  0  0  0
   -3.8036   -0.4613    0.2468 C   0  0  0  0  0  0  0  0  0  0  0  0
   -5.0178    0.1264    0.0362 O   0  0  0  0  0  0  0  0  0  0  0  0
   -5.9323   -0.8247    0.3650 C   0  0  0  0  0  0  0  0  0  0  0  0
   -5.3546   -1.9992    0.7782 C   0  0  0  0  0  0  0  0  0  0  0  0
   -3.9655   -1.7331    0.6909 C   0  0  0  0  0  0  0  0  0  0  0  0
   -2.4340   -2.4978    0.9647 S   0  0  0  0  0  0  0  0  0  0  0  0
   -1.6083   -1.0656    0.4673 C   0  0  0  0  0  0  0  0  0  0  0  0
   -0.1357   -0.9436    0.4308 C   0  0  0  0  0  0  0  0  0  0  0  0
    0.7414   -1.9586    0.7894 C   0  0  0  0  0  0  0  0  0  0  0  0
    2.0917   -1.8510    0.7573 N   0  0  0  0  0  0  0  0  0  0  0  0
    2.6256   -0.6742    0.3480 C   0  0  0  0  0  0  0  0  0  0  0  0
    1.8301    0.4035   -0.0322 C   0  0  0  0  0  0  0  0  0  0  0  0
    0.4343    0.2799    0.0052 C   0  0  0  0  0  0  0  0  0  0  0  0
   -0.4838    1.3906   -0.3870 C   0  0  0  0  0  0  0  0  0  0  0  0
   -0.0977    2.6132   -0.8130 C   0  0  0  0  0  0  0  0  0  0  0  0
    4.1016   -0.6615    0.3497 C   0  0  0  0  0  0  0  0  0  0  0  0
    4.9597   -1.6900    0.7128 C   0  0  0  0  0  0  0  0  0  0  0  0
    6.3369   -1.3451    0.5979 C   0  0  0  0  0  0  0  0  0  0  0  0
    6.5032   -0.0569    0.1483 C   0  0  0  0  0  0  0  0  0  0  0  0
    5.0090    0.7204   -0.1297 S   0  0  0  0  0  0  0  0  0  0  0  0
   -1.6563    4.0305   -2.6453 H   0  0  0  0  0  0  0  0  0  0  0  0
   -1.6661    4.8595   -0.2749 H   0  0  0  0  0  0  0  0  0  0  0  0
   -3.7518    2.3823   -0.7474 H   0  0  0  0  0  0  0  0  0  0  0  0
   -6.9628   -0.5146    0.2523 H   0  0  0  0  0  0  0  0  0  0  0  0
   -5.8510   -2.9047    1.0928 H   0  0  0  0  0  0  0  0  0  0  0  0
    0.3920   -2.9297    1.1275 H   0  0  0  0  0  0  0  0  0  0  0  0
    2.2858    1.3308   -0.3546 H   0  0  0  0  0  0  0  0  0  0  0  0
    0.8996    2.9987   -0.9436 H   0  0  0  0  0  0  0  0  0  0  0  0
    4.6019   -2.6567    1.0492 H   0  0  0  0  0  0  0  0  0  0  0  0
    7.1591   -2.0094    0.8335 H   0  0  0  0  0  0  0  0  0  0  0  0
    7.4320    0.4670   -0.0310 H   0  0  0  0  0  0  0  0  0  0  0  0
  1  2  1  0
  2  3  2  0
  3  4  1  0
  4  5  1  0
  5  6  1  0
  6  7  1  0
  7  8  2  0
  8  9  1  0
  9 10  1  0
 10 11  1  0
 11 12  1  0
 12 13  2  0
 13 14  1  0
 14 15  2  0
 15 16  1  0
 16 17  2  0
 17 18  1  0
 18 19  2  0
 15 20  1  0
 20 21  2  0
 21 22  1  0
 22 23  2  0
 23 24  1  0
 19  1  1  0
 24 20  1  0
 18  3  1  0
 11  4  2  0
 17 12  1  0
  9  5  2  0
  1 25  1  0
  1 26  1  0
  2 27  1  0
  7 28  1  0
  8 29  1  0
 13 30  1  0
 16 31  1  0
 19 32  1  0
 21 33  1  0
 22 34  1  0
 23 35  1  0
M  END
