
     RDKit          3D

 34 39  0  0  0  0  0  0  0  0999 V2000
    6.2077   -0.8232    0.3080 C   0  0  0  0  0  0  0  0  0  0  0  0
    4.8039   -0.9371    0.4009 C   0  0  0  0  0  0  0  0  0  0  0  0
    4.2429    0.2451   -0.1584 C   0  0  0  0  0  0  0  0  0  0  0  0
    3.0616    0.8524   -0.4218 C   0  0  0  0  0  0  0  0  0  0  0  0
    3.4294    2.3834   -1.1752 S   0  0  0  0  0  0  0  0  0  0  0  0
    5.1455    2.1441   -1.1049 C   0  0  0  0  0  0  0  0  0  0  0  0
    5.3701    0.9468   -0.5293 C   0  0  0  0  0  0  0  0  0  0  0  0
    6.5860    0.3781   -0.2856 N   0  0  0  0  0  0  0  0  0  0  0  0
    1.7092    0.4365   -0.1836 C   0  0  0  0  0  0  0  0  0  0  0  0
    1.2429   -0.7348    0.3978 C   0  0  0  0  0  0  0  0  0  0  0  0
   -0.1744   -0.6783    0.4082 C   0  0  0  0  0  0  0  0  0  0  0  0
   -1.2184   -1.5064    0.8384 C   0  0  0  0  0  0  0  0  0  0  0  0
   -2.5268   -1.0684    0.6606 C   0  0  0  0  0  0  0  0  0  0  0  0
   -3.6494   -1.7471    1.0202 O   0  0  0  0  0  0  0  0  0  0  0  0
   -4.7115   -0.9686    0.6705 C   0  0  0  0  0  0  0  0  0  0  0  0
   -6.0432   -1.2963    0.8653 C   0  0  0  0  0  0  0  0  0  0  0  0
   -6.9241   -0.3272    0.4181 C   0  0  0  0  0  0  0  0  0  0  0  0
   -6.5654    0.8444   -0.1605 N   0  0  0  0  0  0  0  0  0  0  0  0
   -5.2477    1.1265   -0.3328 C   0  0  0  0  0  0  0  0  0  0  0  0
   -4.2776    0.2145    0.0843 C   0  0  0  0  0  0  0  0  0  0  0  0
   -2.8554    0.1521    0.0766 C   0  0  0  0  0  0  0  0  0  0  0  0
   -1.8068    0.9783   -0.3528 C   0  0  0  0  0  0  0  0  0  0  0  0
   -0.5003    0.5371   -0.1734 C   0  0  0  0  0  0  0  0  0  0  0  0
    0.6233    1.2078   -0.5292 O   0  0  0  0  0  0  0  0  0  0  0  0
    6.9771   -1.5163    0.6241 H   0  0  0  0  0  0  0  0  0  0  0  0
    4.2818   -1.7833    0.8258 H   0  0  0  0  0  0  0  0  0  0  0  0
    5.8496    2.8741   -1.4783 H   0  0  0  0  0  0  0  0  0  0  0  0
    7.5037    0.7534   -0.4924 H   0  0  0  0  0  0  0  0  0  0  0  0
    1.8542   -1.5418    0.7734 H   0  0  0  0  0  0  0  0  0  0  0  0
   -1.0209   -2.4682    1.3003 H   0  0  0  0  0  0  0  0  0  0  0  0
   -6.3580   -2.2219    1.3233 H   0  0  0  0  0  0  0  0  0  0  0  0
   -7.9974   -0.4730    0.5176 H   0  0  0  0  0  0  0  0  0  0  0  0
   -5.0138    2.0761   -0.8003 H   0  0  0  0  0  0  0  0  0  0  0  0
   -1.9979    1.9412   -0.8154 H   0  0  0  0  0  0  0  0  0  0  0  0
  1  2  2  0
  2  3  1  0
  3  4  2  0
  4  5  1  0
  5  6  1  0
  6  7  2  0
  7  8  1  0
  4  9  1  0
  9 10  2  0
 10 11  1  0
 11 12  2  0
 12 13  1  0
 13 14  1  0
 14 15  1  0
 15 16  2  0
 16 17  1  0
 17 18  2  0
 18 19  1  0
 19 20  2  0
 20 21  1  0
 21 22  1  0
 22 23  2  0
 23 24  1  0
  8  1  1  0
 24  9  1  0
  7  3  1  0
 23 11  1  0
 21 13  2  0
 20 15  1  0
  1 25  1  0
  2 26  1  0
  6 27  1  0
  8 28  1  0
 10 29  1  0
 12 30  1  0
 16 31  1  0
 17 32  1  0
 19 33  1  0
 22 34  1  0
M  END
