
     RDKit          3D

 33 38  0  0  0  0  0  0  0  0999 V2000
   -4.8081    2.2436   -0.3137 C   0  0  0  0  0  0  0  0  0  0  0  0
   -3.5448    1.6186   -0.2350 C   0  0  0  0  0  0  0  0  0  0  0  0
   -3.7696    0.2161   -0.2268 C   0  0  0  0  0  0  0  0  0  0  0  0
   -3.1122   -0.9649   -0.1732 C   0  0  0  0  0  0  0  0  0  0  0  0
   -4.3185   -2.2217   -0.2212 S   0  0  0  0  0  0  0  0  0  0  0  0
   -5.6495   -1.1092   -0.3108 C   0  0  0  0  0  0  0  0  0  0  0  0
   -5.1421    0.1392   -0.3012 C   0  0  0  0  0  0  0  0  0  0  0  0
   -5.8413    1.3093   -0.3569 N   0  0  0  0  0  0  0  0  0  0  0  0
   -1.7030   -1.2197   -0.0919 C   0  0  0  0  0  0  0  0  0  0  0  0
   -1.0238   -2.4345   -0.0367 C   0  0  0  0  0  0  0  0  0  0  0  0
    0.3537   -2.1443    0.0349 C   0  0  0  0  0  0  0  0  0  0  0  0
    1.4421   -2.9490    0.1066 N   0  0  0  0  0  0  0  0  0  0  0  0
    2.6843   -2.3864    0.1668 C   0  0  0  0  0  0  0  0  0  0  0  0
    2.9205   -1.0059    0.1595 C   0  0  0  0  0  0  0  0  0  0  0  0
    4.0454   -0.1496    0.2089 C   0  0  0  0  0  0  0  0  0  0  0  0
    5.3716   -0.4352    0.2861 N   0  0  0  0  0  0  0  0  0  0  0  0
    6.1713    0.6577    0.3141 C   0  0  0  0  0  0  0  0  0  0  0  0
    5.7435    1.9830    0.2712 C   0  0  0  0  0  0  0  0  0  0  0  0
    4.3801    2.2658    0.1919 C   0  0  0  0  0  0  0  0  0  0  0  0
    3.5518    1.1526    0.1626 C   0  0  0  0  0  0  0  0  0  0  0  0
    2.1910    1.1485    0.0878 O   0  0  0  0  0  0  0  0  0  0  0  0
    1.8315   -0.1582    0.0871 C   0  0  0  0  0  0  0  0  0  0  0  0
    0.4376   -0.7744    0.0194 C   0  0  0  0  0  0  0  0  0  0  0  0
   -0.7771   -0.1956   -0.0559 O   0  0  0  0  0  0  0  0  0  0  0  0
   -5.0530    3.2977   -0.3426 H   0  0  0  0  0  0  0  0  0  0  0  0
   -2.5917    2.1300   -0.1900 H   0  0  0  0  0  0  0  0  0  0  0  0
   -6.6783   -1.4362   -0.3626 H   0  0  0  0  0  0  0  0  0  0  0  0
   -6.8442    1.4366   -0.4139 H   0  0  0  0  0  0  0  0  0  0  0  0
   -1.4691   -3.4183   -0.0468 H   0  0  0  0  0  0  0  0  0  0  0  0
    3.5089   -3.0929    0.2226 H   0  0  0  0  0  0  0  0  0  0  0  0
    7.2347    0.4334    0.3759 H   0  0  0  0  0  0  0  0  0  0  0  0
    6.4697    2.7898    0.2993 H   0  0  0  0  0  0  0  0  0  0  0  0
    3.9889    3.2740    0.1556 H   0  0  0  0  0  0  0  0  0  0  0  0
  1  2  2  0
  2  3  1  0
  3  4  2  0
  4  5  1  0
  5  6  1  0
  6  7  2  0
  7  8  1  0
  4  9  1  0
  9 10  2  0
 10 11  1  0
 11 12  2  0
 12 13  1  0
 13 14  2  0
 14 15  1  0
 15 16  2  0
 16 17  1  0
 17 18  2  0
 18 19  1  0
 19 20  2  0
 20 21  1  0
 21 22  1  0
 22 23  2  0
 23 24  1  0
  8  1  1  0
 24  9  1  0
  7  3  1  0
 23 11  1  0
 22 14  1  0
 20 15  1  0
  1 25  1  0
  2 26  1  0
  6 27  1  0
  8 28  1  0
 10 29  1  0
 13 30  1  0
 17 31  1  0
 18 32  1  0
 19 33  1  0
M  END
