
     RDKit          3D

 44 50  0  0  0  0  0  0  0  0999 V2000
   -7.0948    1.5727    0.3966 C   0  0  0  0  0  0  0  0  0  0  0  0
   -5.6889    1.4621    0.3315 C   0  0  0  0  0  0  0  0  0  0  0  0
   -5.3901    0.1362   -0.0786 C   0  0  0  0  0  0  0  0  0  0  0  0
   -4.3480   -0.6775   -0.3624 C   0  0  0  0  0  0  0  0  0  0  0  0
   -5.0191   -2.2141   -0.8463 S   0  0  0  0  0  0  0  0  0  0  0  0
   -6.6642   -1.6971   -0.6388 C   0  0  0  0  0  0  0  0  0  0  0  0
   -6.6430   -0.4137   -0.2287 C   0  0  0  0  0  0  0  0  0  0  0  0
   -7.7201    0.3793    0.0393 N   0  0  0  0  0  0  0  0  0  0  0  0
   -2.9146   -0.4731   -0.3336 C   0  0  0  0  0  0  0  0  0  0  0  0
   -2.0448   -0.7202   -1.4268 C   0  0  0  0  0  0  0  0  0  0  0  0
   -0.6259   -0.4907   -1.3969 C   0  0  0  0  0  0  0  0  0  0  0  0
    0.0728    0.0089   -0.2694 C   0  0  0  0  0  0  0  0  0  0  0  0
    1.4997    0.2740   -0.2333 C   0  0  0  0  0  0  0  0  0  0  0  0
    2.1559    1.4560    0.0418 C   0  0  0  0  0  0  0  0  0  0  0  0
    3.5732    1.3207   -0.0330 C   0  0  0  0  0  0  0  0  0  0  0  0
    3.9739    0.0370   -0.3568 C   0  0  0  0  0  0  0  0  0  0  0  0
    2.6086   -0.9836   -0.5698 S   0  0  0  0  0  0  0  0  0  0  0  0
    5.3163   -0.5045   -0.5333 C   0  0  0  0  0  0  0  0  0  0  0  0
    5.5607   -1.8040   -0.1615 N   0  0  0  0  0  0  0  0  0  0  0  0
    6.8028   -2.3606   -0.2950 C   0  0  0  0  0  0  0  0  0  0  0  0
    7.9481   -1.7497   -0.7929 C   0  0  0  0  0  0  0  0  0  0  0  0
    7.7462   -0.4136   -1.1869 C   0  0  0  0  0  0  0  0  0  0  0  0
    8.6884    0.3926   -1.7019 N   0  0  0  0  0  0  0  0  0  0  0  0
    7.9515    1.8481   -2.0050 S   0  0  0  0  0  0  0  0  0  0  0  0
    6.4094    1.5266   -1.4894 N   0  0  0  0  0  0  0  0  0  0  0  0
    6.3975    0.2494   -1.0583 C   0  0  0  0  0  0  0  0  0  0  0  0
   -0.7943    0.2438    0.8069 C   0  0  0  0  0  0  0  0  0  0  0  0
   -0.4752    0.6948    2.0662 C   0  0  0  0  0  0  0  0  0  0  0  0
   -1.6432    0.7414    2.7948 N   0  0  0  0  0  0  0  0  0  0  0  0
   -2.7043    0.3242    2.0219 C   0  0  0  0  0  0  0  0  0  0  0  0
   -2.2115    0.0143    0.7768 C   0  0  0  0  0  0  0  0  0  0  0  0
   -7.7066    2.4246    0.6660 H   0  0  0  0  0  0  0  0  0  0  0  0
   -4.9858    2.2539    0.5533 H   0  0  0  0  0  0  0  0  0  0  0  0
   -7.5054   -2.3480   -0.8295 H   0  0  0  0  0  0  0  0  0  0  0  0
   -8.7022    0.1399   -0.0212 H   0  0  0  0  0  0  0  0  0  0  0  0
   -2.4692   -1.0957   -2.3598 H   0  0  0  0  0  0  0  0  0  0  0  0
   -0.0645   -0.7048   -2.3076 H   0  0  0  0  0  0  0  0  0  0  0  0
    1.6418    2.3803    0.2759 H   0  0  0  0  0  0  0  0  0  0  0  0
    4.2633    2.1368    0.1469 H   0  0  0  0  0  0  0  0  0  0  0  0
    6.8510   -3.3978    0.0399 H   0  0  0  0  0  0  0  0  0  0  0  0
    8.9013   -2.2511   -0.8728 H   0  0  0  0  0  0  0  0  0  0  0  0
    0.4653    0.9703    2.5232 H   0  0  0  0  0  0  0  0  0  0  0  0
   -1.7114    1.0315    3.7612 H   0  0  0  0  0  0  0  0  0  0  0  0
   -3.7004    0.2806    2.4411 H   0  0  0  0  0  0  0  0  0  0  0  0
  1  2  2  0
  2  3  1  0
  3  4  2  0
  4  5  1  0
  5  6  1  0
  6  7  2  0
  7  8  1  0
  4  9  1  0
  9 10  2  0
 10 11  1  0
 11 12  2  0
 12 13  1  0
 13 14  2  0
 14 15  1  0
 15 16  2  0
 16 17  1  0
 16 18  1  0
 18 19  2  0
 19 20  1  0
 20 21  2  0
 21 22  1  0
 22 23  2  0
 23 24  1  0
 24 25  1  0
 25 26  2  0
 12 27  1  0
 27 28  2  0
 28 29  1  0
 29 30  1  0
 30 31  2  0
  8  1  1  0
 31  9  1  0
  7  3  1  0
 17 13  1  0
 26 18  1  0
 31 27  1  0
 26 22  1  0
  1 32  1  0
  2 33  1  0
  6 34  1  0
  8 35  1  0
 10 36  1  0
 11 37  1  0
 14 38  1  0
 15 39  1  0
 20 40  1  0
 21 41  1  0
 28 42  1  0
 29 43  1  0
 30 44  1  0
M  END
