
     RDKit          3D

 34 39  0  0  0  0  0  0  0  0999 V2000
   -5.2669    1.3974   -0.8817 C   0  0  0  0  0  0  0  0  0  0  0  0
   -3.8732    1.2321   -0.7362 C   0  0  0  0  0  0  0  0  0  0  0  0
   -3.6464   -0.0213   -0.0912 C   0  0  0  0  0  0  0  0  0  0  0  0
   -2.6587   -0.8391    0.3668 C   0  0  0  0  0  0  0  0  0  0  0  0
   -3.4791   -2.2429    1.0416 S   0  0  0  0  0  0  0  0  0  0  0  0
   -5.0651   -1.6692    0.6808 C   0  0  0  0  0  0  0  0  0  0  0  0
   -4.9393   -0.4726    0.0802 C   0  0  0  0  0  0  0  0  0  0  0  0
   -5.9634    0.3126   -0.3629 N   0  0  0  0  0  0  0  0  0  0  0  0
   -1.1794   -0.7317    0.3779 C   0  0  0  0  0  0  0  0  0  0  0  0
   -0.3609   -1.7365    0.9232 C   0  0  0  0  0  0  0  0  0  0  0  0
    1.0416   -1.6430    0.9378 C   0  0  0  0  0  0  0  0  0  0  0  0
    1.6635   -0.5096    0.3912 C   0  0  0  0  0  0  0  0  0  0  0  0
    0.8551    0.4907   -0.1512 C   0  0  0  0  0  0  0  0  0  0  0  0
   -0.5477    0.4015   -0.1682 C   0  0  0  0  0  0  0  0  0  0  0  0
    1.6825    1.4947   -0.6232 N   0  0  0  0  0  0  0  0  0  0  0  0
    3.0091    1.1862   -0.4082 C   0  0  0  0  0  0  0  0  0  0  0  0
    4.1855    1.8931   -0.7142 C   0  0  0  0  0  0  0  0  0  0  0  0
    5.4321    1.3355   -0.3766 C   0  0  0  0  0  0  0  0  0  0  0  0
    5.4285    0.0733    0.2626 C   0  0  0  0  0  0  0  0  0  0  0  0
    6.5183   -0.6137    0.6588 N   0  0  0  0  0  0  0  0  0  0  0  0
    5.9618   -2.0345    1.3539 S   0  0  0  0  0  0  0  0  0  0  0  0
    4.3056   -1.8405    1.1823 N   0  0  0  0  0  0  0  0  0  0  0  0
    4.2159   -0.6636    0.5823 C   0  0  0  0  0  0  0  0  0  0  0  0
    2.9772   -0.0467    0.2149 C   0  0  0  0  0  0  0  0  0  0  0  0
   -5.8211    2.2169   -1.3213 H   0  0  0  0  0  0  0  0  0  0  0  0
   -3.1415    1.9536   -1.0693 H   0  0  0  0  0  0  0  0  0  0  0  0
   -5.9581   -2.2271    0.9239 H   0  0  0  0  0  0  0  0  0  0  0  0
   -6.9576    0.1269   -0.3129 H   0  0  0  0  0  0  0  0  0  0  0  0
   -0.7892   -2.6357    1.3596 H   0  0  0  0  0  0  0  0  0  0  0  0
    1.6326   -2.4458    1.3707 H   0  0  0  0  0  0  0  0  0  0  0  0
   -1.1199    1.2100   -0.6031 H   0  0  0  0  0  0  0  0  0  0  0  0
    1.3534    2.3404   -1.0662 H   0  0  0  0  0  0  0  0  0  0  0  0
    4.1423    2.8615   -1.2067 H   0  0  0  0  0  0  0  0  0  0  0  0
    6.3626    1.8472   -0.5946 H   0  0  0  0  0  0  0  0  0  0  0  0
  1  2  2  0
  2  3  1  0
  3  4  2  0
  4  5  1  0
  5  6  1  0
  6  7  2  0
  7  8  1  0
  4  9  1  0
  9 10  2  0
 10 11  1  0
 11 12  2  0
 12 13  1  0
 13 14  2  0
 13 15  1  0
 15 16  1  0
 16 17  1  0
 17 18  2  0
 18 19  1  0
 19 20  2  0
 20 21  1  0
 21 22  1  0
 22 23  2  0
 23 24  1  0
  8  1  1  0
 14  9  1  0
 24 16  2  0
  7  3  1  0
 24 12  1  0
 23 19  1  0
  1 25  1  0
  2 26  1  0
  6 27  1  0
  8 28  1  0
 10 29  1  0
 11 30  1  0
 14 31  1  0
 15 32  1  0
 17 33  1  0
 18 34  1  0
M  END
