
     RDKit          3D

 47 54  0  0  0  0  0  0  0  0999 V2000
    6.9261    0.3612   -2.1080 C   0  0  0  0  0  0  0  0  0  0  0  0
    5.5682    0.2131   -1.7517 C   0  0  0  0  0  0  0  0  0  0  0  0
    5.5145    0.0993   -0.3366 C   0  0  0  0  0  0  0  0  0  0  0  0
    4.6389   -0.0633    0.6836 C   0  0  0  0  0  0  0  0  0  0  0  0
    5.5822   -0.0977    2.1549 S   0  0  0  0  0  0  0  0  0  0  0  0
    7.0985    0.0991    1.3335 C   0  0  0  0  0  0  0  0  0  0  0  0
    6.8430    0.1849    0.0136 C   0  0  0  0  0  0  0  0  0  0  0  0
    7.7550    0.3452   -0.9881 N   0  0  0  0  0  0  0  0  0  0  0  0
    3.1799   -0.1705    0.7097 C   0  0  0  0  0  0  0  0  0  0  0  0
    2.5244   -1.0836    1.5286 C   0  0  0  0  0  0  0  0  0  0  0  0
    1.1275   -1.1616    1.5206 C   0  0  0  0  0  0  0  0  0  0  0  0
    0.3240   -0.3240    0.7060 C   0  0  0  0  0  0  0  0  0  0  0  0
    1.0084    0.5574   -0.1494 C   0  0  0  0  0  0  0  0  0  0  0  0
    2.3962    0.6307   -0.1263 C   0  0  0  0  0  0  0  0  0  0  0  0
    0.3810    1.3522   -1.0136 N   0  0  0  0  0  0  0  0  0  0  0  0
   -0.9690    1.2717   -1.1044 C   0  0  0  0  0  0  0  0  0  0  0  0
   -1.8226    0.4520   -0.3678 C   0  0  0  0  0  0  0  0  0  0  0  0
   -3.3057    0.4158   -0.5912 C   0  0  0  0  0  0  0  0  0  0  0  0
   -4.1158    0.9951   -1.6282 C   0  0  0  0  0  0  0  0  0  0  0  0
   -3.7298    1.6538   -2.7738 C   0  0  0  0  0  0  0  0  0  0  0  0
   -4.8182    2.0352   -3.5091 O   0  0  0  0  0  0  0  0  0  0  0  0
   -5.9272    1.5900   -2.8585 C   0  0  0  0  0  0  0  0  0  0  0  0
   -5.5485    0.9287   -1.7220 C   0  0  0  0  0  0  0  0  0  0  0  0
   -6.4210    0.2997   -0.8562 C   0  0  0  0  0  0  0  0  0  0  0  0
   -5.6951   -0.3308    0.1633 C   0  0  0  0  0  0  0  0  0  0  0  0
   -4.2381   -0.2870    0.2816 C   0  0  0  0  0  0  0  0  0  0  0  0
   -3.5240   -0.9373    1.3061 C   0  0  0  0  0  0  0  0  0  0  0  0
   -4.0883   -1.6609    2.3329 C   0  0  0  0  0  0  0  0  0  0  0  0
   -3.0699   -2.0844    3.1458 N   0  0  0  0  0  0  0  0  0  0  0  0
   -1.8656   -1.6340    2.6556 C   0  0  0  0  0  0  0  0  0  0  0  0
   -2.0980   -0.9592    1.4765 C   0  0  0  0  0  0  0  0  0  0  0  0
   -1.1342   -0.3101    0.6385 C   0  0  0  0  0  0  0  0  0  0  0  0
    7.3713    0.4766   -3.0881 H   0  0  0  0  0  0  0  0  0  0  0  0
    4.7390    0.1900   -2.4468 H   0  0  0  0  0  0  0  0  0  0  0  0
    8.0426    0.1387    1.8577 H   0  0  0  0  0  0  0  0  0  0  0  0
    8.7612    0.4272   -0.9100 H   0  0  0  0  0  0  0  0  0  0  0  0
    3.0844   -1.7636    2.1667 H   0  0  0  0  0  0  0  0  0  0  0  0
    0.6853   -1.9345    2.1348 H   0  0  0  0  0  0  0  0  0  0  0  0
    2.8757    1.3486   -0.7897 H   0  0  0  0  0  0  0  0  0  0  0  0
   -1.3492    1.9883   -1.8194 H   0  0  0  0  0  0  0  0  0  0  0  0
   -2.7939    1.9213   -3.2381 H   0  0  0  0  0  0  0  0  0  0  0  0
   -6.8709    1.8062   -3.3388 H   0  0  0  0  0  0  0  0  0  0  0  0
   -7.4966    0.2574   -0.9447 H   0  0  0  0  0  0  0  0  0  0  0  0
   -6.2659   -0.8888    0.9043 H   0  0  0  0  0  0  0  0  0  0  0  0
   -5.1118   -1.9018    2.5836 H   0  0  0  0  0  0  0  0  0  0  0  0
   -3.1876   -2.6145    4.0001 H   0  0  0  0  0  0  0  0  0  0  0  0
   -0.9804   -1.8314    3.2375 H   0  0  0  0  0  0  0  0  0  0  0  0
  1  2  2  0
  2  3  1  0
  3  4  2  0
  4  5  1  0
  5  6  1  0
  6  7  2  0
  7  8  1  0
  4  9  1  0
  9 10  2  0
 10 11  1  0
 11 12  2  0
 12 13  1  0
 13 14  2  0
 13 15  1  0
 15 16  2  0
 16 17  1  0
 17 18  1  0
 18 19  1  0
 19 20  2  0
 20 21  1  0
 21 22  1  0
 22 23  2  0
 23 24  1  0
 24 25  2  0
 25 26  1  0
 26 27  1  0
 27 28  2  0
 28 29  1  0
 29 30  1  0
 30 31  2  0
 31 32  1  0
  8  1  1  0
 14  9  1  0
 32 17  2  0
  7  3  1  0
 32 12  1  0
 26 18  2  0
 31 27  1  0
 23 19  1  0
  1 33  1  0
  2 34  1  0
  6 35  1  0
  8 36  1  0
 10 37  1  0
 11 38  1  0
 14 39  1  0
 16 40  1  0
 20 41  1  0
 22 42  1  0
 24 43  1  0
 25 44  1  0
 28 45  1  0
 29 46  1  0
 30 47  1  0
M  END
