
     RDKit          3D

 39 45  0  0  0  0  0  0  0  0999 V2000
    2.6695   -2.1086   -3.1070 Si  0  0  0  0  0  4  0  0  0  0  0  0
    3.5130   -1.3986   -1.6065 C   0  0  0  0  0  0  0  0  0  0  0  0
    2.6301   -0.7960   -0.7893 C   0  0  0  0  0  0  0  0  0  0  0  0
    2.8993   -0.1471    0.4399 C   0  0  0  0  0  0  0  0  0  0  0  0
    4.0601    0.0972    1.1990 C   0  0  0  0  0  0  0  0  0  0  0  0
    5.7721   -0.1652    1.2115 S   0  0  0  0  0  0  0  0  0  0  0  0
    5.8957    0.6693    2.7220 C   0  0  0  0  0  0  0  0  0  0  0  0
    4.6926    1.1335    3.2144 C   0  0  0  0  0  0  0  0  0  0  0  0
    3.6710    0.7842    2.3103 C   0  0  0  0  0  0  0  0  0  0  0  0
    2.3188    0.9983    2.3122 O   0  0  0  0  0  0  0  0  0  0  0  0
    1.8825    0.4235    1.1643 C   0  0  0  0  0  0  0  0  0  0  0  0
    0.4789    0.4387    0.7898 C   0  0  0  0  0  0  0  0  0  0  0  0
   -0.5437    1.0441    1.5679 C   0  0  0  0  0  0  0  0  0  0  0  0
   -0.4187    1.6874    2.7423 N   0  0  0  0  0  0  0  0  0  0  0  0
   -1.9236    2.2029    3.1872 S   0  0  0  0  0  0  0  0  0  0  0  0
   -2.8273    1.6315    1.9257 N   0  0  0  0  0  0  0  0  0  0  0  0
   -1.9845    1.0056    1.0847 C   0  0  0  0  0  0  0  0  0  0  0  0
   -2.3209    0.3638   -0.1455 C   0  0  0  0  0  0  0  0  0  0  0  0
   -1.2500   -0.2138   -0.8699 C   0  0  0  0  0  0  0  0  0  0  0  0
    0.1019   -0.1924   -0.4412 C   0  0  0  0  0  0  0  0  0  0  0  0
    1.2035   -0.8271   -1.2524 C   0  0  0  0  0  0  0  0  0  0  0  0
    1.0398   -1.4654   -2.4320 C   0  0  0  0  0  0  0  0  0  0  0  0
   -3.6927    0.3153   -0.6421 C   0  0  0  0  0  0  0  0  0  0  0  0
   -4.1028    0.6558   -1.8836 C   0  0  0  0  0  0  0  0  0  0  0  0
   -5.5173    0.4552   -2.1558 C   0  0  0  0  0  0  0  0  0  0  0  0
   -6.2308   -0.0572   -1.1376 C   0  0  0  0  0  0  0  0  0  0  0  0
   -5.1504   -0.3444    0.3795 Si  0  0  0  0  0  4  0  0  0  0  0  0
    2.7092   -3.5897   -3.1396 H   0  0  0  0  0  0  0  0  0  0  0  0
    3.0581   -1.4228   -4.3620 H   0  0  0  0  0  0  0  0  0  0  0  0
    4.5781   -1.4913   -1.4664 H   0  0  0  0  0  0  0  0  0  0  0  0
    6.8721    0.7738    3.1758 H   0  0  0  0  0  0  0  0  0  0  0  0
    4.5609    1.6762    4.1400 H   0  0  0  0  0  0  0  0  0  0  0  0
   -1.4983   -0.7077   -1.8089 H   0  0  0  0  0  0  0  0  0  0  0  0
    0.1343   -1.6343   -2.9902 H   0  0  0  0  0  0  0  0  0  0  0  0
   -3.4524    1.0487   -2.6564 H   0  0  0  0  0  0  0  0  0  0  0  0
   -5.9399    0.7063   -3.1210 H   0  0  0  0  0  0  0  0  0  0  0  0
   -7.2857   -0.2814   -1.1278 H   0  0  0  0  0  0  0  0  0  0  0  0
   -5.5870    0.5237    1.4999 H   0  0  0  0  0  0  0  0  0  0  0  0
   -5.0157   -1.7921    0.6824 H   0  0  0  0  0  0  0  0  0  0  0  0
  1  2  1  0
  2  3  2  0
  3  4  1  0
  4  5  1  0
  5  6  1  0
  6  7  1  0
  7  8  2  0
  8  9  1  0
  9 10  1  0
 10 11  1  0
 11 12  1  0
 12 13  1  0
 13 14  2  0
 14 15  1  0
 15 16  1  0
 16 17  2  0
 17 18  1  0
 18 19  2  0
 19 20  1  0
 20 21  1  0
 21 22  2  0
 18 23  1  0
 23 24  2  0
 24 25  1  0
 25 26  2  0
 26 27  1  0
 22  1  1  0
 27 23  1  0
 21  3  1  0
 11  4  2  0
 20 12  2  0
  9  5  2  0
 17 13  1  0
  1 28  1  0
  1 29  1  0
  2 30  1  0
  7 31  1  0
  8 32  1  0
 19 33  1  0
 22 34  1  0
 24 35  1  0
 25 36  1  0
 26 37  1  0
 27 38  1  0
 27 39  1  0
M  END
