
     RDKit          3D

 42 48  0  0  0  0  0  0  0  0999 V2000
    6.5628   -1.5037   -1.5545 C   0  0  0  0  0  0  0  0  0  0  0  0
    5.1724   -1.3651   -1.3535 C   0  0  0  0  0  0  0  0  0  0  0  0
    4.9862   -0.3226   -0.4066 C   0  0  0  0  0  0  0  0  0  0  0  0
    4.0149    0.3570    0.2480 C   0  0  0  0  0  0  0  0  0  0  0  0
    4.8180    1.5360    1.2570 S   0  0  0  0  0  0  0  0  0  0  0  0
    6.4103    1.0700    0.7469 C   0  0  0  0  0  0  0  0  0  0  0  0
    6.2800    0.0637   -0.1392 C   0  0  0  0  0  0  0  0  0  0  0  0
    7.2857   -0.5947   -0.7841 N   0  0  0  0  0  0  0  0  0  0  0  0
    2.5588    0.2207    0.2420 C   0  0  0  0  0  0  0  0  0  0  0  0
    1.9720   -1.0394    0.2664 C   0  0  0  0  0  0  0  0  0  0  0  0
    0.5792   -1.1704    0.2478 C   0  0  0  0  0  0  0  0  0  0  0  0
   -0.2905   -0.0513    0.1751 C   0  0  0  0  0  0  0  0  0  0  0  0
    0.3251    1.2143    0.2132 C   0  0  0  0  0  0  0  0  0  0  0  0
    1.7103    1.3312    0.2239 C   0  0  0  0  0  0  0  0  0  0  0  0
   -0.3671    2.3502    0.2589 N   0  0  0  0  0  0  0  0  0  0  0  0
   -1.7173    2.2854    0.3153 C   0  0  0  0  0  0  0  0  0  0  0  0
   -2.5094    1.1363    0.2677 C   0  0  0  0  0  0  0  0  0  0  0  0
   -3.9825    1.2170    0.3614 C   0  0  0  0  0  0  0  0  0  0  0  0
   -4.7033    2.4087    0.5804 C   0  0  0  0  0  0  0  0  0  0  0  0
   -6.0532    2.5426    0.6842 N   0  0  0  0  0  0  0  0  0  0  0  0
   -6.7871    1.4254    0.5680 C   0  0  0  0  0  0  0  0  0  0  0  0
   -6.2354    0.1819    0.3505 C   0  0  0  0  0  0  0  0  0  0  0  0
   -4.8269    0.0791    0.2470 C   0  0  0  0  0  0  0  0  0  0  0  0
   -4.0964   -1.1070   -0.0065 C   0  0  0  0  0  0  0  0  0  0  0  0
   -4.7064   -2.3242   -0.2204 C   0  0  0  0  0  0  0  0  0  0  0  0
   -3.5783   -3.5459   -0.6107 S   0  0  0  0  0  0  0  0  0  0  0  0
   -2.2690   -2.4445   -0.4986 C   0  0  0  0  0  0  0  0  0  0  0  0
   -2.6502   -1.1863   -0.0847 C   0  0  0  0  0  0  0  0  0  0  0  0
   -1.7522   -0.0786    0.1160 C   0  0  0  0  0  0  0  0  0  0  0  0
    7.1005   -2.1864   -2.2002 H   0  0  0  0  0  0  0  0  0  0  0  0
    4.4091   -1.9518   -1.8470 H   0  0  0  0  0  0  0  0  0  0  0  0
    7.3034    1.5501    1.1206 H   0  0  0  0  0  0  0  0  0  0  0  0
    8.2835   -0.4403   -0.7070 H   0  0  0  0  0  0  0  0  0  0  0  0
    2.5868   -1.9352    0.3279 H   0  0  0  0  0  0  0  0  0  0  0  0
    0.1951   -2.1773    0.3514 H   0  0  0  0  0  0  0  0  0  0  0  0
    2.1314    2.3352    0.2206 H   0  0  0  0  0  0  0  0  0  0  0  0
   -2.1509    3.2787    0.3913 H   0  0  0  0  0  0  0  0  0  0  0  0
   -4.2022    3.3653    0.6994 H   0  0  0  0  0  0  0  0  0  0  0  0
   -7.8612    1.5595    0.6548 H   0  0  0  0  0  0  0  0  0  0  0  0
   -6.8874   -0.6782    0.2619 H   0  0  0  0  0  0  0  0  0  0  0  0
   -5.7558   -2.5800   -0.2033 H   0  0  0  0  0  0  0  0  0  0  0  0
   -1.3029   -2.8252   -0.7815 H   0  0  0  0  0  0  0  0  0  0  0  0
  1  2  2  0
  2  3  1  0
  3  4  2  0
  4  5  1  0
  5  6  1  0
  6  7  2  0
  7  8  1  0
  4  9  1  0
  9 10  2  0
 10 11  1  0
 11 12  2  0
 12 13  1  0
 13 14  2  0
 13 15  1  0
 15 16  2  0
 16 17  1  0
 17 18  1  0
 18 19  2  0
 19 20  1  0
 20 21  2  0
 21 22  1  0
 22 23  2  0
 23 24  1  0
 24 25  2  0
 25 26  1  0
 26 27  1  0
 27 28  2  0
 28 29  1  0
  8  1  1  0
 14  9  1  0
 29 17  2  0
  7  3  1  0
 29 12  1  0
 23 18  1  0
 28 24  1  0
  1 30  1  0
  2 31  1  0
  6 32  1  0
  8 33  1  0
 10 34  1  0
 11 35  1  0
 14 36  1  0
 16 37  1  0
 19 38  1  0
 21 39  1  0
 22 40  1  0
 25 41  1  0
 27 42  1  0
M  END
