
     RDKit          3D

 36 41  0  0  0  0  0  0  0  0999 V2000
   -6.3113    1.5780   -1.6845 C   0  0  0  0  0  0  0  0  0  0  0  0
   -4.9453    1.3445   -1.4180 C   0  0  0  0  0  0  0  0  0  0  0  0
   -4.8710    0.3613   -0.3898 C   0  0  0  0  0  0  0  0  0  0  0  0
   -3.9865   -0.3433    0.3609 C   0  0  0  0  0  0  0  0  0  0  0  0
   -4.9397   -1.3678    1.4152 S   0  0  0  0  0  0  0  0  0  0  0  0
   -6.4589   -0.8076    0.8051 C   0  0  0  0  0  0  0  0  0  0  0  0
   -6.2047    0.1086   -0.1478 C   0  0  0  0  0  0  0  0  0  0  0  0
   -7.1308    0.7937   -0.8787 N   0  0  0  0  0  0  0  0  0  0  0  0
   -2.5446   -0.3239    0.3643 C   0  0  0  0  0  0  0  0  0  0  0  0
   -1.6989    0.4409   -0.4202 C   0  0  0  0  0  0  0  0  0  0  0  0
   -0.3422    0.2680   -0.2173 N   0  0  0  0  0  0  0  0  0  0  0  0
   -0.1459   -0.6304    0.7240 C   0  0  0  0  0  0  0  0  0  0  0  0
   -1.5735   -1.2996    1.3992 S   0  0  0  0  0  0  0  0  0  0  0  0
    1.1758   -1.0158    1.1483 C   0  0  0  0  0  0  0  0  0  0  0  0
    1.5749   -1.9298    2.1093 C   0  0  0  0  0  0  0  0  0  0  0  0
    2.9918   -1.9277    2.1304 C   0  0  0  0  0  0  0  0  0  0  0  0
    3.4165   -1.0131    1.1825 C   0  0  0  0  0  0  0  0  0  0  0  0
    2.3055   -0.4680    0.5949 O   0  0  0  0  0  0  0  0  0  0  0  0
    4.7475   -0.6288    0.8032 C   0  0  0  0  0  0  0  0  0  0  0  0
    6.1669   -1.2990    1.5267 S   0  0  0  0  0  0  0  0  0  0  0  0
    7.2375   -0.3572    0.5609 C   0  0  0  0  0  0  0  0  0  0  0  0
    6.5294    0.4437   -0.2873 C   0  0  0  0  0  0  0  0  0  0  0  0
    7.0821    1.6338   -1.5210 S   0  0  0  0  0  0  0  0  0  0  0  0
    5.3684    1.8909   -1.8178 C   0  0  0  0  0  0  0  0  0  0  0  0
    4.4846    1.1330   -1.0410 C   0  0  0  0  0  0  0  0  0  0  0  0
    5.1543    0.2705   -0.1292 C   0  0  0  0  0  0  0  0  0  0  0  0
   -6.7677    2.2533   -2.3974 H   0  0  0  0  0  0  0  0  0  0  0  0
   -4.1303    1.8426   -1.9248 H   0  0  0  0  0  0  0  0  0  0  0  0
   -7.4065   -1.1750    1.1732 H   0  0  0  0  0  0  0  0  0  0  0  0
   -8.1402    0.7286   -0.8273 H   0  0  0  0  0  0  0  0  0  0  0  0
   -2.0120    1.1546   -1.1706 H   0  0  0  0  0  0  0  0  0  0  0  0
    0.9243   -2.5326    2.7280 H   0  0  0  0  0  0  0  0  0  0  0  0
    3.6276   -2.5275    2.7673 H   0  0  0  0  0  0  0  0  0  0  0  0
    8.3130   -0.4251    0.6496 H   0  0  0  0  0  0  0  0  0  0  0  0
    5.1021    2.6136   -2.5771 H   0  0  0  0  0  0  0  0  0  0  0  0
    3.4078    1.2126   -1.1419 H   0  0  0  0  0  0  0  0  0  0  0  0
  1  2  2  0
  2  3  1  0
  3  4  2  0
  4  5  1  0
  5  6  1  0
  6  7  2  0
  7  8  1  0
  4  9  1  0
  9 10  2  0
 10 11  1  0
 11 12  2  0
 12 13  1  0
 12 14  1  0
 14 15  2  0
 15 16  1  0
 16 17  2  0
 17 18  1  0
 17 19  1  0
 19 20  1  0
 20 21  1  0
 21 22  2  0
 22 23  1  0
 23 24  1  0
 24 25  2  0
 25 26  1  0
  8  1  1  0
 13  9  1  0
 18 14  1  0
 26 19  2  0
  7  3  1  0
 26 22  1  0
  1 27  1  0
  2 28  1  0
  6 29  1  0
  8 30  1  0
 10 31  1  0
 15 32  1  0
 16 33  1  0
 21 34  1  0
 24 35  1  0
 25 36  1  0
M  END
