
     RDKit          3D

 37 42  0  0  0  0  0  0  0  0999 V2000
   -6.0449    1.6093    0.6216 C   0  0  0  0  0  0  0  0  0  0  0  0
   -4.6545    1.3800    0.5484 C   0  0  0  0  0  0  0  0  0  0  0  0
   -4.4580    0.0081    0.2110 C   0  0  0  0  0  0  0  0  0  0  0  0
   -3.4888   -0.9162   -0.0267 C   0  0  0  0  0  0  0  0  0  0  0  0
   -4.3334   -2.4166   -0.3825 S   0  0  0  0  0  0  0  0  0  0  0  0
   -5.9095   -1.7376   -0.1973 C   0  0  0  0  0  0  0  0  0  0  0  0
   -5.7600   -0.4386    0.1180 C   0  0  0  0  0  0  0  0  0  0  0  0
   -6.7666    0.4532    0.3482 N   0  0  0  0  0  0  0  0  0  0  0  0
   -2.0155   -0.8487   -0.0284 C   0  0  0  0  0  0  0  0  0  0  0  0
   -1.1999   -1.9398   -0.3052 C   0  0  0  0  0  0  0  0  0  0  0  0
    0.1572   -1.9119   -0.3151 N   0  0  0  0  0  0  0  0  0  0  0  0
    0.7775   -0.7412   -0.0366 C   0  0  0  0  0  0  0  0  0  0  0  0
    0.0524    0.4257    0.2576 C   0  0  0  0  0  0  0  0  0  0  0  0
   -1.3346    0.3403    0.2539 C   0  0  0  0  0  0  0  0  0  0  0  0
    0.6268    1.6069    0.5392 N   0  0  0  0  0  0  0  0  0  0  0  0
    1.9767    1.6662    0.5370 C   0  0  0  0  0  0  0  0  0  0  0  0
    2.8256    0.5896    0.2633 C   0  0  0  0  0  0  0  0  0  0  0  0
    4.2590    0.6490    0.2601 C   0  0  0  0  0  0  0  0  0  0  0  0
    5.0367    1.7881    0.5290 C   0  0  0  0  0  0  0  0  0  0  0  0
    6.3880    1.8263    0.5216 N   0  0  0  0  0  0  0  0  0  0  0  0
    7.0165    0.6745    0.2323 C   0  0  0  0  0  0  0  0  0  0  0  0
    6.3518   -0.5033   -0.0473 C   0  0  0  0  0  0  0  0  0  0  0  0
    4.9697   -0.5265   -0.0359 C   0  0  0  0  0  0  0  0  0  0  0  0
    4.3581   -1.6847   -0.3115 N   0  0  0  0  0  0  0  0  0  0  0  0
    3.0033   -1.7145   -0.3020 C   0  0  0  0  0  0  0  0  0  0  0  0
    2.1793   -0.6266   -0.0260 C   0  0  0  0  0  0  0  0  0  0  0  0
   -6.5805    2.5219    0.8510 H   0  0  0  0  0  0  0  0  0  0  0  0
   -3.9058    2.1398    0.7246 H   0  0  0  0  0  0  0  0  0  0  0  0
   -6.8144   -2.3145   -0.3270 H   0  0  0  0  0  0  0  0  0  0  0  0
   -7.7655    0.2886    0.3204 H   0  0  0  0  0  0  0  0  0  0  0  0
   -1.6043   -2.9208   -0.5400 H   0  0  0  0  0  0  0  0  0  0  0  0
   -1.8797    1.2495    0.4829 H   0  0  0  0  0  0  0  0  0  0  0  0
    2.3593    2.6554    0.7740 H   0  0  0  0  0  0  0  0  0  0  0  0
    4.5856    2.7466    0.7688 H   0  0  0  0  0  0  0  0  0  0  0  0
    8.1017    0.7199    0.2300 H   0  0  0  0  0  0  0  0  0  0  0  0
    6.9087   -1.4059   -0.2748 H   0  0  0  0  0  0  0  0  0  0  0  0
    2.5818   -2.6915   -0.5356 H   0  0  0  0  0  0  0  0  0  0  0  0
  1  2  2  0
  2  3  1  0
  3  4  2  0
  4  5  1  0
  5  6  1  0
  6  7  2  0
  7  8  1  0
  4  9  1  0
  9 10  2  0
 10 11  1  0
 11 12  2  0
 12 13  1  0
 13 14  2  0
 13 15  1  0
 15 16  2  0
 16 17  1  0
 17 18  2  0
 18 19  1  0
 19 20  2  0
 20 21  1  0
 21 22  2  0
 22 23  1  0
 23 24  2  0
 24 25  1  0
 25 26  2  0
  8  1  1  0
 14  9  1  0
 26 17  1  0
  7  3  1  0
 26 12  1  0
 23 18  1  0
  1 27  1  0
  2 28  1  0
  6 29  1  0
  8 30  1  0
 10 31  1  0
 14 32  1  0
 16 33  1  0
 19 34  1  0
 21 35  1  0
 22 36  1  0
 25 37  1  0
M  END
