
     RDKit          3D

 44 51  0  0  0  0  0  0  0  0999 V2000
    6.5361   -2.2300   -1.4883 C   0  0  0  0  0  0  0  0  0  0  0  0
    5.1921   -1.8669   -1.2586 C   0  0  0  0  0  0  0  0  0  0  0  0
    5.1870   -0.7864   -0.3271 C   0  0  0  0  0  0  0  0  0  0  0  0
    4.3558    0.0540    0.3461 C   0  0  0  0  0  0  0  0  0  0  0  0
    5.3994    1.0930    1.3068 S   0  0  0  0  0  0  0  0  0  0  0  0
    6.8649    0.3594    0.7651 C   0  0  0  0  0  0  0  0  0  0  0  0
    6.5371   -0.6184   -0.0984 C   0  0  0  0  0  0  0  0  0  0  0  0
    7.4099   -1.4387   -0.7517 N   0  0  0  0  0  0  0  0  0  0  0  0
    2.8889    0.2010    0.3819 C   0  0  0  0  0  0  0  0  0  0  0  0
    2.2315    1.1468    1.1566 C   0  0  0  0  0  0  0  0  0  0  0  0
    0.8830    1.3133    1.2166 N   0  0  0  0  0  0  0  0  0  0  0  0
    0.0767    0.5167    0.4797 C   0  0  0  0  0  0  0  0  0  0  0  0
    0.6471   -0.4703   -0.3361 C   0  0  0  0  0  0  0  0  0  0  0  0
   -0.1699   -1.3013   -1.1033 C   0  0  0  0  0  0  0  0  0  0  0  0
   -1.5623   -1.1702   -1.0766 C   0  0  0  0  0  0  0  0  0  0  0  0
   -2.2323   -0.2122   -0.2920 C   0  0  0  0  0  0  0  0  0  0  0  0
   -3.7300   -0.0720   -0.2640 C   0  0  0  0  0  0  0  0  0  0  0  0
   -4.6841   -0.8769   -1.0173 C   0  0  0  0  0  0  0  0  0  0  0  0
   -4.3984   -1.8824   -1.8666 N   0  0  0  0  0  0  0  0  0  0  0  0
   -5.8187   -2.4747   -2.4654 S   0  0  0  0  0  0  0  0  0  0  0  0
   -6.9035   -1.4987   -1.6911 N   0  0  0  0  0  0  0  0  0  0  0  0
   -6.1883   -0.6611   -0.9245 C   0  0  0  0  0  0  0  0  0  0  0  0
   -6.7568    0.3318   -0.1035 C   0  0  0  0  0  0  0  0  0  0  0  0
   -5.8527    1.1060    0.6201 C   0  0  0  0  0  0  0  0  0  0  0  0
   -4.4347    0.9129    0.5415 C   0  0  0  0  0  0  0  0  0  0  0  0
   -3.5161    1.6902    1.2688 C   0  0  0  0  0  0  0  0  0  0  0  0
   -3.8021    2.7168    2.1363 C   0  0  0  0  0  0  0  0  0  0  0  0
   -2.6494    3.2290    2.6494 O   0  0  0  0  0  0  0  0  0  0  0  0
   -1.6180    2.5229    2.1045 C   0  0  0  0  0  0  0  0  0  0  0  0
   -2.0966    1.5614    1.2457 C   0  0  0  0  0  0  0  0  0  0  0  0
   -1.3501    0.6262    0.4856 C   0  0  0  0  0  0  0  0  0  0  0  0
    2.0476   -0.6151   -0.3741 C   0  0  0  0  0  0  0  0  0  0  0  0
    6.9405   -3.0029   -2.1297 H   0  0  0  0  0  0  0  0  0  0  0  0
    4.3464   -2.3497   -1.7274 H   0  0  0  0  0  0  0  0  0  0  0  0
    7.8398    0.6812    1.1031 H   0  0  0  0  0  0  0  0  0  0  0  0
    8.4211   -1.4459   -0.6952 H   0  0  0  0  0  0  0  0  0  0  0  0
    2.7674    1.8459    1.7926 H   0  0  0  0  0  0  0  0  0  0  0  0
    0.2643   -2.0707   -1.7398 H   0  0  0  0  0  0  0  0  0  0  0  0
   -2.1094   -1.8635   -1.7083 H   0  0  0  0  0  0  0  0  0  0  0  0
   -7.8283    0.4785   -0.0435 H   0  0  0  0  0  0  0  0  0  0  0  0
   -6.2615    1.8830    1.2647 H   0  0  0  0  0  0  0  0  0  0  0  0
   -4.7059    3.1918    2.4898 H   0  0  0  0  0  0  0  0  0  0  0  0
   -0.6347    2.8313    2.4314 H   0  0  0  0  0  0  0  0  0  0  0  0
    2.4674   -1.3852   -1.0121 H   0  0  0  0  0  0  0  0  0  0  0  0
  1  2  2  0
  2  3  1  0
  3  4  2  0
  4  5  1  0
  5  6  1  0
  6  7  2  0
  7  8  1  0
  4  9  1  0
  9 10  2  0
 10 11  1  0
 11 12  2  0
 12 13  1  0
 13 14  1  0
 14 15  2  0
 15 16  1  0
 16 17  1  0
 17 18  1  0
 18 19  2  0
 19 20  1  0
 20 21  1  0
 21 22  2  0
 22 23  1  0
 23 24  2  0
 24 25  1  0
 25 26  1  0
 26 27  2  0
 27 28  1  0
 28 29  1  0
 29 30  2  0
 30 31  1  0
 13 32  2  0
  8  1  1  0
 32  9  1  0
  7  3  1  0
 31 12  1  0
 31 16  2  0
 25 17  2  0
 30 26  1  0
 22 18  1  0
  1 33  1  0
  2 34  1  0
  6 35  1  0
  8 36  1  0
 10 37  1  0
 14 38  1  0
 15 39  1  0
 23 40  1  0
 24 41  1  0
 27 42  1  0
 29 43  1  0
 32 44  1  0
M  END
