
     RDKit          3D

 34 39  0  0  0  0  0  0  0  0999 V2000
   -6.0823    1.3780    0.3820 C   0  0  0  0  0  0  0  0  0  0  0  0
   -4.6748    1.4366    0.4639 C   0  0  0  0  0  0  0  0  0  0  0  0
   -4.1600    0.1971   -0.0196 C   0  0  0  0  0  0  0  0  0  0  0  0
   -2.9985   -0.4742   -0.2451 C   0  0  0  0  0  0  0  0  0  0  0  0
   -3.4671   -2.0367   -0.9007 S   0  0  0  0  0  0  0  0  0  0  0  0
   -5.1614   -1.7127   -0.8386 C   0  0  0  0  0  0  0  0  0  0  0  0
   -5.3221   -0.4735   -0.3406 C   0  0  0  0  0  0  0  0  0  0  0  0
   -6.5122    0.1601   -0.1317 N   0  0  0  0  0  0  0  0  0  0  0  0
   -1.5808   -0.1206   -0.0427 C   0  0  0  0  0  0  0  0  0  0  0  0
   -1.2040    1.1133    0.4754 C   0  0  0  0  0  0  0  0  0  0  0  0
    0.0743    1.5205    0.6939 N   0  0  0  0  0  0  0  0  0  0  0  0
    1.0666    0.6730    0.3897 C   0  0  0  0  0  0  0  0  0  0  0  0
    2.3817    1.0634    0.6029 C   0  0  0  0  0  0  0  0  0  0  0  0
    3.4723    0.2123    0.3012 C   0  0  0  0  0  0  0  0  0  0  0  0
    3.2086   -1.0505   -0.2240 C   0  0  0  0  0  0  0  0  0  0  0  0
    1.8829   -1.4699   -0.4495 C   0  0  0  0  0  0  0  0  0  0  0  0
    0.8194   -0.6013   -0.1395 C   0  0  0  0  0  0  0  0  0  0  0  0
   -0.5189   -0.9812   -0.3494 C   0  0  0  0  0  0  0  0  0  0  0  0
    4.6358   -1.9661   -0.5381 S   0  0  0  0  0  0  0  0  0  0  0  0
    5.6311   -0.6604    0.0347 C   0  0  0  0  0  0  0  0  0  0  0  0
    7.0375   -0.4558    0.1760 C   0  0  0  0  0  0  0  0  0  0  0  0
    7.2999    0.7908    0.6945 C   0  0  0  0  0  0  0  0  0  0  0  0
    5.8977    1.7202    1.0153 S   0  0  0  0  0  0  0  0  0  0  0  0
    4.8875    0.4117    0.4407 C   0  0  0  0  0  0  0  0  0  0  0  0
   -6.8189    2.1231    0.6550 H   0  0  0  0  0  0  0  0  0  0  0  0
   -4.1264    2.2914    0.8346 H   0  0  0  0  0  0  0  0  0  0  0  0
   -5.9059   -2.4271   -1.1602 H   0  0  0  0  0  0  0  0  0  0  0  0
   -7.4456   -0.1889   -0.3122 H   0  0  0  0  0  0  0  0  0  0  0  0
   -1.9350    1.8644    0.7512 H   0  0  0  0  0  0  0  0  0  0  0  0
    2.5703    2.0530    1.0136 H   0  0  0  0  0  0  0  0  0  0  0  0
    1.6911   -2.4584   -0.8599 H   0  0  0  0  0  0  0  0  0  0  0  0
   -0.7117   -1.9693   -0.7598 H   0  0  0  0  0  0  0  0  0  0  0  0
    7.7982   -1.1795   -0.0874 H   0  0  0  0  0  0  0  0  0  0  0  0
    8.2708    1.2174    0.9083 H   0  0  0  0  0  0  0  0  0  0  0  0
  1  2  2  0
  2  3  1  0
  3  4  2  0
  4  5  1  0
  5  6  1  0
  6  7  2  0
  7  8  1  0
  4  9  1  0
  9 10  2  0
 10 11  1  0
 11 12  2  0
 12 13  1  0
 13 14  2  0
 14 15  1  0
 15 16  2  0
 16 17  1  0
 17 18  2  0
 15 19  1  0
 19 20  1  0
 20 21  1  0
 21 22  2  0
 22 23  1  0
 23 24  1  0
  8  1  1  0
 18  9  1  0
 24 20  2  0
  7  3  1  0
 17 12  1  0
 24 14  1  0
  1 25  1  0
  2 26  1  0
  6 27  1  0
  8 28  1  0
 10 29  1  0
 13 30  1  0
 16 31  1  0
 18 32  1  0
 21 33  1  0
 22 34  1  0
M  END
