
     RDKit          3D

 40 46  0  0  0  0  0  0  0  0999 V2000
   -5.8856   -2.4456    0.7745 C   0  0  0  0  0  0  0  0  0  0  0  0
   -4.6064   -1.8501    0.7393 C   0  0  0  0  0  0  0  0  0  0  0  0
   -4.7618   -0.5416    0.2029 C   0  0  0  0  0  0  0  0  0  0  0  0
   -4.0586    0.5723   -0.1160 C   0  0  0  0  0  0  0  0  0  0  0  0
   -5.2094    1.7284   -0.7424 S   0  0  0  0  0  0  0  0  0  0  0  0
   -6.5712    0.6747   -0.5394 C   0  0  0  0  0  0  0  0  0  0  0  0
   -6.1194   -0.4845   -0.0238 C   0  0  0  0  0  0  0  0  0  0  0  0
   -6.8654   -1.5829    0.2893 N   0  0  0  0  0  0  0  0  0  0  0  0
   -2.6556    0.8401   -0.0245 C   0  0  0  0  0  0  0  0  0  0  0  0
   -1.4253   -0.3743   -0.2001 S   0  0  0  0  0  0  0  0  0  0  0  0
   -0.1109    0.7402    0.0392 C   0  0  0  0  0  0  0  0  0  0  0  0
    1.2687    0.3038   -0.0252 C   0  0  0  0  0  0  0  0  0  0  0  0
    2.2073    0.8517   -0.8970 C   0  0  0  0  0  0  0  0  0  0  0  0
    3.5279    0.5118   -1.0128 N   0  0  0  0  0  0  0  0  0  0  0  0
    4.1013   -0.4754   -0.2278 C   0  0  0  0  0  0  0  0  0  0  0  0
    5.5170   -0.8084   -0.4056 C   0  0  0  0  0  0  0  0  0  0  0  0
    5.9019   -2.0787   -0.2335 N   0  0  0  0  0  0  0  0  0  0  0  0
    7.1970   -2.3042   -0.4343 C   0  0  0  0  0  0  0  0  0  0  0  0
    8.1028   -1.3997   -0.7936 N   0  0  0  0  0  0  0  0  0  0  0  0
    7.6076   -0.1757   -0.9503 C   0  0  0  0  0  0  0  0  0  0  0  0
    6.3402    0.1841   -0.7734 N   0  0  0  0  0  0  0  0  0  0  0  0
    3.2583   -1.1030    0.7315 C   0  0  0  0  0  0  0  0  0  0  0  0
    3.5839   -2.0460    1.6361 N   0  0  0  0  0  0  0  0  0  0  0  0
    2.2175   -2.3997    2.4961 S   0  0  0  0  0  0  0  0  0  0  0  0
    1.1408   -1.3599    1.7949 N   0  0  0  0  0  0  0  0  0  0  0  0
    1.8000   -0.6936    0.8290 C   0  0  0  0  0  0  0  0  0  0  0  0
   -0.6551    1.9651    0.2215 C   0  0  0  0  0  0  0  0  0  0  0  0
   -0.2643    3.2943    0.4597 C   0  0  0  0  0  0  0  0  0  0  0  0
   -1.4625    4.0116    0.5522 C   0  0  0  0  0  0  0  0  0  0  0  0
   -2.5979    3.2415    0.3911 O   0  0  0  0  0  0  0  0  0  0  0  0
   -2.0294    2.0177    0.1916 C   0  0  0  0  0  0  0  0  0  0  0  0
   -6.1765   -3.4308    1.1160 H   0  0  0  0  0  0  0  0  0  0  0  0
   -3.6912   -2.3232    1.0704 H   0  0  0  0  0  0  0  0  0  0  0  0
   -7.5772    0.9675   -0.8036 H   0  0  0  0  0  0  0  0  0  0  0  0
   -7.8650   -1.7088    0.1876 H   0  0  0  0  0  0  0  0  0  0  0  0
    1.9070    1.6372   -1.5917 H   0  0  0  0  0  0  0  0  0  0  0  0
    7.5457   -3.3217   -0.2935 H   0  0  0  0  0  0  0  0  0  0  0  0
    8.3018    0.6022   -1.2495 H   0  0  0  0  0  0  0  0  0  0  0  0
    0.7297    3.7049    0.5648 H   0  0  0  0  0  0  0  0  0  0  0  0
   -1.6679    5.0593    0.7307 H   0  0  0  0  0  0  0  0  0  0  0  0
  1  2  2  0
  2  3  1  0
  3  4  2  0
  4  5  1  0
  5  6  1  0
  6  7  2  0
  7  8  1  0
  4  9  1  0
  9 10  1  0
 10 11  1  0
 11 12  1  0
 12 13  2  0
 13 14  1  0
 14 15  2  0
 15 16  1  0
 16 17  2  0
 17 18  1  0
 18 19  2  0
 19 20  1  0
 20 21  2  0
 15 22  1  0
 22 23  2  0
 23 24  1  0
 24 25  1  0
 25 26  2  0
 11 27  2  0
 27 28  1  0
 28 29  2  0
 29 30  1  0
 30 31  1  0
  8  1  1  0
 31  9  2  0
  7  3  1  0
 26 12  1  0
 31 27  1  0
 21 16  1  0
 26 22  1  0
  1 32  1  0
  2 33  1  0
  6 34  1  0
  8 35  1  0
 13 36  1  0
 18 37  1  0
 20 38  1  0
 28 39  1  0
 29 40  1  0
M  END
