
     RDKit          3D

 41 47  0  0  0  0  0  0  0  0999 V2000
    6.8591   -1.4916   -0.1856 C   0  0  0  0  0  0  0  0  0  0  0  0
    5.4635   -1.5903   -0.1193 C   0  0  0  0  0  0  0  0  0  0  0  0
    4.9930   -0.2637   -0.1950 C   0  0  0  0  0  0  0  0  0  0  0  0
    3.8443    0.4564   -0.1982 C   0  0  0  0  0  0  0  0  0  0  0  0
    4.2982    2.1421   -0.3390 S   0  0  0  0  0  0  0  0  0  0  0  0
    5.9952    1.8078   -0.3870 C   0  0  0  0  0  0  0  0  0  0  0  0
    6.1475    0.4754   -0.2973 C   0  0  0  0  0  0  0  0  0  0  0  0
    7.3299   -0.1974   -0.2990 O   0  0  0  0  0  0  0  0  0  0  0  0
    2.4741    0.0371   -0.1098 C   0  0  0  0  0  0  0  0  0  0  0  0
    1.9354   -1.2339    0.0048 C   0  0  0  0  0  0  0  0  0  0  0  0
    0.5582   -1.0397    0.0492 C   0  0  0  0  0  0  0  0  0  0  0  0
   -0.4925   -1.9672    0.1607 C   0  0  0  0  0  0  0  0  0  0  0  0
   -0.4326   -3.3193    0.2557 C   0  0  0  0  0  0  0  0  0  0  0  0
   -1.7195   -3.7699    0.3429 O   0  0  0  0  0  0  0  0  0  0  0  0
   -2.5442   -2.6700    0.2985 C   0  0  0  0  0  0  0  0  0  0  0  0
   -1.8224   -1.4988    0.1834 C   0  0  0  0  0  0  0  0  0  0  0  0
   -2.2934   -0.1421    0.1055 C   0  0  0  0  0  0  0  0  0  0  0  0
   -1.1616    0.7481   -0.0068 C   0  0  0  0  0  0  0  0  0  0  0  0
   -1.3639    2.1312   -0.0980 C   0  0  0  0  0  0  0  0  0  0  0  0
   -2.6521    2.6580   -0.0814 C   0  0  0  0  0  0  0  0  0  0  0  0
   -3.7787    1.8360    0.0258 C   0  0  0  0  0  0  0  0  0  0  0  0
   -5.0484    2.4389    0.0361 C   0  0  0  0  0  0  0  0  0  0  0  0
   -6.2072    1.6781    0.1402 C   0  0  0  0  0  0  0  0  0  0  0  0
   -6.1058    0.3014    0.2352 C   0  0  0  0  0  0  0  0  0  0  0  0
   -4.8462   -0.3089    0.2258 C   0  0  0  0  0  0  0  0  0  0  0  0
   -3.6377    0.4245    0.1216 C   0  0  0  0  0  0  0  0  0  0  0  0
    0.1983    0.2881   -0.0313 C   0  0  0  0  0  0  0  0  0  0  0  0
    1.4167    0.9343   -0.1297 N   0  0  0  0  0  0  0  0  0  0  0  0
    7.6397   -2.2412   -0.1647 H   0  0  0  0  0  0  0  0  0  0  0  0
    4.9008   -2.5073   -0.0293 H   0  0  0  0  0  0  0  0  0  0  0  0
    6.7578    2.5677   -0.4741 H   0  0  0  0  0  0  0  0  0  0  0  0
    2.4791   -2.1663    0.0490 H   0  0  0  0  0  0  0  0  0  0  0  0
    0.3422   -4.0710    0.2771 H   0  0  0  0  0  0  0  0  0  0  0  0
   -3.5867   -2.9330    0.3617 H   0  0  0  0  0  0  0  0  0  0  0  0
   -0.5351    2.8275   -0.1834 H   0  0  0  0  0  0  0  0  0  0  0  0
   -2.7668    3.7384   -0.1545 H   0  0  0  0  0  0  0  0  0  0  0  0
   -5.1458    3.5205   -0.0378 H   0  0  0  0  0  0  0  0  0  0  0  0
   -7.1808    2.1598    0.1468 H   0  0  0  0  0  0  0  0  0  0  0  0
   -7.0025   -0.3076    0.3172 H   0  0  0  0  0  0  0  0  0  0  0  0
   -4.8441   -1.3860    0.3035 H   0  0  0  0  0  0  0  0  0  0  0  0
    1.5352    1.9338   -0.2068 H   0  0  0  0  0  0  0  0  0  0  0  0
  1  2  2  0
  2  3  1  0
  3  4  2  0
  4  5  1  0
  5  6  1  0
  6  7  2  0
  7  8  1  0
  4  9  1  0
  9 10  2  0
 10 11  1  0
 11 12  1  0
 12 13  2  0
 13 14  1  0
 14 15  1  0
 15 16  2  0
 16 17  1  0
 17 18  2  0
 18 19  1  0
 19 20  2  0
 20 21  1  0
 21 22  2  0
 22 23  1  0
 23 24  2  0
 24 25  1  0
 25 26  2  0
 18 27  1  0
 27 28  1  0
  8  1  1  0
 28  9  1  0
  7  3  1  0
 27 11  2  0
 16 12  1  0
 26 17  1  0
 26 21  1  0
  1 29  1  0
  2 30  1  0
  6 31  1  0
 10 32  1  0
 13 33  1  0
 15 34  1  0
 19 35  1  0
 20 36  1  0
 22 37  1  0
 23 38  1  0
 24 39  1  0
 25 40  1  0
 28 41  1  0
M  END
