
     RDKit          3D

 33 38  0  0  0  0  0  0  0  0999 V2000
   -6.0302   -0.5070    2.2537 C   0  0  0  0  0  0  0  0  0  0  0  0
   -4.6587   -0.4649    1.9739 C   0  0  0  0  0  0  0  0  0  0  0  0
   -4.5641   -0.2062    0.5889 C   0  0  0  0  0  0  0  0  0  0  0  0
   -3.6516   -0.0272   -0.4031 C   0  0  0  0  0  0  0  0  0  0  0  0
   -4.5700    0.2553   -1.8747 S   0  0  0  0  0  0  0  0  0  0  0  0
   -6.1065    0.1218   -1.1002 C   0  0  0  0  0  0  0  0  0  0  0  0
   -5.8815   -0.1236    0.2005 C   0  0  0  0  0  0  0  0  0  0  0  0
   -6.8366   -0.2950    1.1540 O   0  0  0  0  0  0  0  0  0  0  0  0
   -2.2039   -0.0454   -0.3639 C   0  0  0  0  0  0  0  0  0  0  0  0
   -1.3982   -0.2582    0.7397 C   0  0  0  0  0  0  0  0  0  0  0  0
    0.0084   -0.2153    0.4546 C   0  0  0  0  0  0  0  0  0  0  0  0
    1.1229   -0.3804    1.2915 C   0  0  0  0  0  0  0  0  0  0  0  0
    2.4255   -0.2962    0.7898 C   0  0  0  0  0  0  0  0  0  0  0  0
    3.8868   -0.4715    1.6672 S   0  0  0  0  0  0  0  0  0  0  0  0
    4.8601   -0.2187    0.2783 C   0  0  0  0  0  0  0  0  0  0  0  0
    6.2593   -0.2183    0.2201 C   0  0  0  0  0  0  0  0  0  0  0  0
    6.8157    0.0104   -1.0232 C   0  0  0  0  0  0  0  0  0  0  0  0
    6.1047    0.2257   -2.1443 N   0  0  0  0  0  0  0  0  0  0  0  0
    4.7533    0.2226   -2.0733 C   0  0  0  0  0  0  0  0  0  0  0  0
    4.0817   -0.0000   -0.8580 C   0  0  0  0  0  0  0  0  0  0  0  0
    2.6624   -0.0455   -0.5582 C   0  0  0  0  0  0  0  0  0  0  0  0
    1.5405    0.1194   -1.3938 C   0  0  0  0  0  0  0  0  0  0  0  0
    0.2393    0.0350   -0.8911 C   0  0  0  0  0  0  0  0  0  0  0  0
   -1.2312    0.2079   -1.7557 S   0  0  0  0  0  0  0  0  0  0  0  0
   -6.5773   -0.6750    3.1725 H   0  0  0  0  0  0  0  0  0  0  0  0
   -3.8724   -0.6067    2.6996 H   0  0  0  0  0  0  0  0  0  0  0  0
   -7.0519    0.2247   -1.6122 H   0  0  0  0  0  0  0  0  0  0  0  0
   -1.7807   -0.4415    1.7341 H   0  0  0  0  0  0  0  0  0  0  0  0
    0.9677   -0.5776    2.3504 H   0  0  0  0  0  0  0  0  0  0  0  0
    6.8725   -0.3870    1.0966 H   0  0  0  0  0  0  0  0  0  0  0  0
    7.8948    0.0266   -1.1525 H   0  0  0  0  0  0  0  0  0  0  0  0
    4.2313    0.4014   -3.0073 H   0  0  0  0  0  0  0  0  0  0  0  0
    1.6878    0.3168   -2.4538 H   0  0  0  0  0  0  0  0  0  0  0  0
  1  2  2  0
  2  3  1  0
  3  4  2  0
  4  5  1  0
  5  6  1  0
  6  7  2  0
  7  8  1  0
  4  9  1  0
  9 10  2  0
 10 11  1  0
 11 12  2  0
 12 13  1  0
 13 14  1  0
 14 15  1  0
 15 16  2  0
 16 17  1  0
 17 18  2  0
 18 19  1  0
 19 20  2  0
 20 21  1  0
 21 22  1  0
 22 23  2  0
 23 24  1  0
  8  1  1  0
 24  9  1  0
  7  3  1  0
 23 11  1  0
 21 13  2  0
 20 15  1  0
  1 25  1  0
  2 26  1  0
  6 27  1  0
 10 28  1  0
 12 29  1  0
 16 30  1  0
 17 31  1  0
 19 32  1  0
 22 33  1  0
M  END
