
     RDKit          3D

 49 56  0  0  0  0  0  0  0  0999 V2000
    7.3211    1.8161    0.8121 C   0  0  0  0  0  0  0  0  0  0  0  0
    5.9421    1.5699    0.7922 C   0  0  0  0  0  0  0  0  0  0  0  0
    5.8219    0.1687    0.7681 C   0  0  0  0  0  0  0  0  0  0  0  0
    4.8819   -0.8050    0.7481 C   0  0  0  0  0  0  0  0  0  0  0  0
    5.7226   -2.3351    0.7581 S   0  0  0  0  0  0  0  0  0  0  0  0
    7.2957   -1.6038    0.7782 C   0  0  0  0  0  0  0  0  0  0  0  0
    7.1223   -0.2704    0.7830 C   0  0  0  0  0  0  0  0  0  0  0  0
    8.1017    0.6736    0.8048 O   0  0  0  0  0  0  0  0  0  0  0  0
    3.4364   -0.7594    0.7254 C   0  0  0  0  0  0  0  0  0  0  0  0
    2.5974   -1.3455    1.6952 C   0  0  0  0  0  0  0  0  0  0  0  0
    1.1805   -1.2980    1.7099 C   0  0  0  0  0  0  0  0  0  0  0  0
    0.6234   -1.9331    2.7405 N   0  0  0  0  0  0  0  0  0  0  0  0
   -0.7219   -1.9460    2.8451 C   0  0  0  0  0  0  0  0  0  0  0  0
   -1.6032   -1.3364    1.9611 C   0  0  0  0  0  0  0  0  0  0  0  0
   -2.9897   -1.4100    2.1729 C   0  0  0  0  0  0  0  0  0  0  0  0
   -3.9001   -0.7980    1.3030 C   0  0  0  0  0  0  0  0  0  0  0  0
   -5.2714   -0.8982    1.5550 C   0  0  0  0  0  0  0  0  0  0  0  0
   -6.1973   -0.2969    0.7085 C   0  0  0  0  0  0  0  0  0  0  0  0
   -5.7778    0.4216   -0.4128 C   0  0  0  0  0  0  0  0  0  0  0  0
   -6.7379    1.0178   -1.2482 C   0  0  0  0  0  0  0  0  0  0  0  0
   -6.3597    1.7416   -2.3753 C   0  0  0  0  0  0  0  0  0  0  0  0
   -5.0144    1.8771   -2.6797 C   0  0  0  0  0  0  0  0  0  0  0  0
   -4.0499    1.2882   -1.8558 C   0  0  0  0  0  0  0  0  0  0  0  0
   -4.3931    0.5431   -0.6984 C   0  0  0  0  0  0  0  0  0  0  0  0
   -3.4343   -0.0824    0.1811 C   0  0  0  0  0  0  0  0  0  0  0  0
   -2.0215   -0.0334    0.0032 C   0  0  0  0  0  0  0  0  0  0  0  0
   -1.0696   -0.6487    0.8617 C   0  0  0  0  0  0  0  0  0  0  0  0
    0.3799   -0.6287    0.7152 C   0  0  0  0  0  0  0  0  0  0  0  0
    1.2471   -0.0481   -0.2774 C   0  0  0  0  0  0  0  0  0  0  0  0
    0.9186    0.6458   -1.4200 C   0  0  0  0  0  0  0  0  0  0  0  0
    2.0866    0.9875   -2.0707 N   0  0  0  0  0  0  0  0  0  0  0  0
    3.1687    0.5198   -1.3702 C   0  0  0  0  0  0  0  0  0  0  0  0
    2.6841   -0.1174   -0.2535 C   0  0  0  0  0  0  0  0  0  0  0  0
    7.8921    2.7351    0.8350 H   0  0  0  0  0  0  0  0  0  0  0  0
    5.1592    2.3147    0.7986 H   0  0  0  0  0  0  0  0  0  0  0  0
    8.2181   -2.1653    0.7883 H   0  0  0  0  0  0  0  0  0  0  0  0
    3.0733   -1.8803    2.5202 H   0  0  0  0  0  0  0  0  0  0  0  0
   -1.0862   -2.4908    3.7137 H   0  0  0  0  0  0  0  0  0  0  0  0
   -3.3656   -1.9561    3.0377 H   0  0  0  0  0  0  0  0  0  0  0  0
   -5.6383   -1.4489    2.4189 H   0  0  0  0  0  0  0  0  0  0  0  0
   -7.2561   -0.3973    0.9380 H   0  0  0  0  0  0  0  0  0  0  0  0
   -7.7985    0.9213   -1.0244 H   0  0  0  0  0  0  0  0  0  0  0  0
   -7.1144    2.1963   -3.0109 H   0  0  0  0  0  0  0  0  0  0  0  0
   -4.7081    2.4400   -3.5575 H   0  0  0  0  0  0  0  0  0  0  0  0
   -3.0119    1.4265   -2.1426 H   0  0  0  0  0  0  0  0  0  0  0  0
   -1.6498    0.5193   -0.8444 H   0  0  0  0  0  0  0  0  0  0  0  0
   -0.0119    0.9385   -1.8762 H   0  0  0  0  0  0  0  0  0  0  0  0
    2.1357    1.4934   -2.9461 H   0  0  0  0  0  0  0  0  0  0  0  0
    4.1722    0.6769   -1.7429 H   0  0  0  0  0  0  0  0  0  0  0  0
  1  2  2  0
  2  3  1  0
  3  4  2  0
  4  5  1  0
  5  6  1  0
  6  7  2  0
  7  8  1  0
  4  9  1  0
  9 10  2  0
 10 11  1  0
 11 12  2  0
 12 13  1  0
 13 14  2  0
 14 15  1  0
 15 16  2  0
 16 17  1  0
 17 18  2  0
 18 19  1  0
 19 20  2  0
 20 21  1  0
 21 22  2  0
 22 23  1  0
 23 24  2  0
 24 25  1  0
 25 26  2  0
 26 27  1  0
 27 28  2  0
 28 29  1  0
 29 30  2  0
 30 31  1  0
 31 32  1  0
 32 33  2  0
  8  1  1  0
 33  9  1  0
  7  3  1  0
 28 11  1  0
 33 29  1  0
 27 14  1  0
 25 16  1  0
 24 19  1  0
  1 34  1  0
  2 35  1  0
  6 36  1  0
 10 37  1  0
 13 38  1  0
 15 39  1  0
 17 40  1  0
 18 41  1  0
 20 42  1  0
 21 43  1  0
 22 44  1  0
 23 45  1  0
 26 46  1  0
 30 47  1  0
 31 48  1  0
 32 49  1  0
M  END
