
     RDKit          3D

 48 54  0  0  0  0  0  0  0  0999 V2000
   -6.7817    0.5577    2.6309 C   0  0  0  0  0  0  0  0  0  0  0  0
   -5.4425    0.4082    2.2466 C   0  0  0  0  0  0  0  0  0  0  0  0
   -5.3744    0.9499    0.9516 C   0  0  0  0  0  0  0  0  0  0  0  0
   -4.4918    1.1704   -0.0493 C   0  0  0  0  0  0  0  0  0  0  0  0
   -5.3583    1.9378   -1.3538 S   0  0  0  0  0  0  0  0  0  0  0  0
   -6.8722    1.9275   -0.5029 C   0  0  0  0  0  0  0  0  0  0  0  0
   -6.6590    1.3609    0.6985 C   0  0  0  0  0  0  0  0  0  0  0  0
   -7.5837    1.1575    1.6753 O   0  0  0  0  0  0  0  0  0  0  0  0
   -3.0632    0.8832   -0.1681 C   0  0  0  0  0  0  0  0  0  0  0  0
   -2.1739    1.9557   -0.0182 C   0  0  0  0  0  0  0  0  0  0  0  0
   -0.8020    1.7497   -0.0898 C   0  0  0  0  0  0  0  0  0  0  0  0
   -0.2856    0.4657   -0.3095 C   0  0  0  0  0  0  0  0  0  0  0  0
    1.1608    0.3275   -0.3683 C   0  0  0  0  0  0  0  0  0  0  0  0
    2.1620    0.1712    1.0289 S   0  0  0  0  0  0  0  0  0  0  0  0
    3.6418    0.0754    0.0987 C   0  0  0  0  0  0  0  0  0  0  0  0
    4.9386   -0.1015    0.7525 C   0  0  0  0  0  0  0  0  0  0  0  0
    5.8573   -1.0349    0.2497 C   0  0  0  0  0  0  0  0  0  0  0  0
    7.1040   -1.2094    0.8562 C   0  0  0  0  0  0  0  0  0  0  0  0
    7.4492   -0.4501    1.9716 C   0  0  0  0  0  0  0  0  0  0  0  0
    6.5494    0.4831    2.4810 C   0  0  0  0  0  0  0  0  0  0  0  0
    5.3020    0.6571    1.8749 C   0  0  0  0  0  0  0  0  0  0  0  0
    3.2946    0.1675   -1.2090 C   0  0  0  0  0  0  0  0  0  0  0  0
    3.8745    0.1824   -2.4912 C   0  0  0  0  0  0  0  0  0  0  0  0
    2.7989    0.3271   -3.3766 C   0  0  0  0  0  0  0  0  0  0  0  0
    1.5644    0.4099   -2.7602 O   0  0  0  0  0  0  0  0  0  0  0  0
    1.9503    0.3084   -1.4581 C   0  0  0  0  0  0  0  0  0  0  0  0
   -1.1636   -0.6439   -0.4668 C   0  0  0  0  0  0  0  0  0  0  0  0
   -0.6948   -1.9630   -0.6900 C   0  0  0  0  0  0  0  0  0  0  0  0
   -1.5630   -3.0431   -0.8464 C   0  0  0  0  0  0  0  0  0  0  0  0
   -2.9300   -2.8365   -0.7866 C   0  0  0  0  0  0  0  0  0  0  0  0
   -3.4242   -1.5510   -0.5669 C   0  0  0  0  0  0  0  0  0  0  0  0
   -2.5698   -0.4325   -0.3972 C   0  0  0  0  0  0  0  0  0  0  0  0
   -7.3085    0.2906    3.5378 H   0  0  0  0  0  0  0  0  0  0  0  0
   -4.6529   -0.0337    2.8375 H   0  0  0  0  0  0  0  0  0  0  0  0
   -7.7917    2.3195   -0.9115 H   0  0  0  0  0  0  0  0  0  0  0  0
   -2.5492    2.9616    0.1598 H   0  0  0  0  0  0  0  0  0  0  0  0
   -0.1322    2.5996    0.0259 H   0  0  0  0  0  0  0  0  0  0  0  0
    5.6048   -1.6471   -0.6132 H   0  0  0  0  0  0  0  0  0  0  0  0
    7.8033   -1.9407    0.4589 H   0  0  0  0  0  0  0  0  0  0  0  0
    8.4186   -0.5858    2.4443 H   0  0  0  0  0  0  0  0  0  0  0  0
    6.8171    1.0787    3.3501 H   0  0  0  0  0  0  0  0  0  0  0  0
    4.6221    1.4004    2.2853 H   0  0  0  0  0  0  0  0  0  0  0  0
    4.9173    0.1082   -2.7641 H   0  0  0  0  0  0  0  0  0  0  0  0
    2.7527    0.3897   -4.4561 H   0  0  0  0  0  0  0  0  0  0  0  0
    0.3723   -2.1681   -0.7490 H   0  0  0  0  0  0  0  0  0  0  0  0
   -1.1658   -4.0397   -1.0190 H   0  0  0  0  0  0  0  0  0  0  0  0
   -3.6165   -3.6693   -0.9136 H   0  0  0  0  0  0  0  0  0  0  0  0
   -4.5056   -1.4319   -0.5365 H   0  0  0  0  0  0  0  0  0  0  0  0
  1  2  2  0
  2  3  1  0
  3  4  2  0
  4  5  1  0
  5  6  1  0
  6  7  2  0
  7  8  1  0
  4  9  1  0
  9 10  2  0
 10 11  1  0
 11 12  2  0
 12 13  1  0
 13 14  1  0
 14 15  1  0
 15 16  1  0
 16 17  2  0
 17 18  1  0
 18 19  2  0
 19 20  1  0
 20 21  2  0
 15 22  2  0
 22 23  1  0
 23 24  2  0
 24 25  1  0
 25 26  1  0
 12 27  1  0
 27 28  2  0
 28 29  1  0
 29 30  2  0
 30 31  1  0
 31 32  2  0
  8  1  1  0
 32  9  1  0
  7  3  1  0
 26 13  2  0
 32 27  1  0
 21 16  1  0
 26 22  1  0
  1 33  1  0
  2 34  1  0
  6 35  1  0
 10 36  1  0
 11 37  1  0
 17 38  1  0
 18 39  1  0
 19 40  1  0
 20 41  1  0
 21 42  1  0
 23 43  1  0
 24 44  1  0
 28 45  1  0
 29 46  1  0
 30 47  1  0
 31 48  1  0
M  END
