
     RDKit          3D

 40 44  0  0  0  0  0  0  0  0999 V2000
    7.4177   -0.1510   -0.7084 C   0  0  0  0  0  0  0  0  0  0  0  0
    6.0548    0.1687   -0.6530 C   0  0  0  0  0  0  0  0  0  0  0  0
    5.4252   -0.9936   -0.1697 C   0  0  0  0  0  0  0  0  0  0  0  0
    4.1978   -1.4672    0.1554 C   0  0  0  0  0  0  0  0  0  0  0  0
    4.4172   -3.1120    0.7106 S   0  0  0  0  0  0  0  0  0  0  0  0
    6.1360   -3.0855    0.4897 C   0  0  0  0  0  0  0  0  0  0  0  0
    6.4644   -1.8713    0.0156 C   0  0  0  0  0  0  0  0  0  0  0  0
    7.7159   -1.4362   -0.2929 O   0  0  0  0  0  0  0  0  0  0  0  0
    2.8683   -0.8618    0.0817 C   0  0  0  0  0  0  0  0  0  0  0  0
    1.9528   -0.9749    1.1360 C   0  0  0  0  0  0  0  0  0  0  0  0
    0.6873   -0.3804    1.0544 C   0  0  0  0  0  0  0  0  0  0  0  0
    0.3076    0.3416   -0.0834 C   0  0  0  0  0  0  0  0  0  0  0  0
    1.2249    0.4625   -1.1334 C   0  0  0  0  0  0  0  0  0  0  0  0
    2.4897   -0.1323   -1.0524 C   0  0  0  0  0  0  0  0  0  0  0  0
   -1.0129    0.9648   -0.1799 C   0  0  0  0  0  0  0  0  0  0  0  0
   -1.4126    2.1433   -0.7840 C   0  0  0  0  0  0  0  0  0  0  0  0
   -2.8106    2.2777   -0.6053 C   0  0  0  0  0  0  0  0  0  0  0  0
   -3.2606    1.1811    0.1075 C   0  0  0  0  0  0  0  0  0  0  0  0
   -2.1541    0.3930    0.3407 N   0  0  0  0  0  0  0  0  0  0  0  0
   -4.6084    0.8135    0.5451 C   0  0  0  0  0  0  0  0  0  0  0  0
   -5.7196    1.1276   -0.2490 C   0  0  0  0  0  0  0  0  0  0  0  0
   -7.0101    0.7778    0.1574 C   0  0  0  0  0  0  0  0  0  0  0  0
   -7.2047    0.1132    1.3658 C   0  0  0  0  0  0  0  0  0  0  0  0
   -6.1104   -0.1999    2.1689 C   0  0  0  0  0  0  0  0  0  0  0  0
   -4.8196    0.1487    1.7614 C   0  0  0  0  0  0  0  0  0  0  0  0
    8.2840    0.4217   -1.0133 H   0  0  0  0  0  0  0  0  0  0  0  0
    5.6122    1.1164   -0.9236 H   0  0  0  0  0  0  0  0  0  0  0  0
    6.7831   -3.9221    0.7081 H   0  0  0  0  0  0  0  0  0  0  0  0
    2.2180   -1.5134    2.0433 H   0  0  0  0  0  0  0  0  0  0  0  0
    0.0159   -0.4721    1.9042 H   0  0  0  0  0  0  0  0  0  0  0  0
    0.9593    1.0096   -2.0351 H   0  0  0  0  0  0  0  0  0  0  0  0
    3.1694   -0.0300   -1.8955 H   0  0  0  0  0  0  0  0  0  0  0  0
   -0.7638    2.8431   -1.2947 H   0  0  0  0  0  0  0  0  0  0  0  0
   -3.4242    3.0983   -0.9542 H   0  0  0  0  0  0  0  0  0  0  0  0
   -2.1838   -0.5081    0.7951 H   0  0  0  0  0  0  0  0  0  0  0  0
   -5.5888    1.6384   -1.2000 H   0  0  0  0  0  0  0  0  0  0  0  0
   -7.8613    1.0247   -0.4716 H   0  0  0  0  0  0  0  0  0  0  0  0
   -8.2086   -0.1568    1.6830 H   0  0  0  0  0  0  0  0  0  0  0  0
   -6.2612   -0.7100    3.1168 H   0  0  0  0  0  0  0  0  0  0  0  0
   -3.9861   -0.0869    2.4176 H   0  0  0  0  0  0  0  0  0  0  0  0
  1  2  2  0
  2  3  1  0
  3  4  2  0
  4  5  1  0
  5  6  1  0
  6  7  2  0
  7  8  1  0
  4  9  1  0
  9 10  2  0
 10 11  1  0
 11 12  2  0
 12 13  1  0
 13 14  2  0
 12 15  1  0
 15 16  2  0
 16 17  1  0
 17 18  2  0
 18 19  1  0
 18 20  1  0
 20 21  2  0
 21 22  1  0
 22 23  2  0
 23 24  1  0
 24 25  2  0
  8  1  1  0
 14  9  1  0
 19 15  1  0
 25 20  1  0
  7  3  1  0
  1 26  1  0
  2 27  1  0
  6 28  1  0
 10 29  1  0
 11 30  1  0
 13 31  1  0
 14 32  1  0
 16 33  1  0
 17 34  1  0
 19 35  1  0
 21 36  1  0
 22 37  1  0
 23 38  1  0
 24 39  1  0
 25 40  1  0
M  END
