
     RDKit          3D

 41 47  0  0  0  0  0  0  0  0999 V2000
   -6.7176    0.6695    1.8928 C   0  0  0  0  0  0  0  0  0  0  0  0
   -5.3370    0.6123    1.6663 C   0  0  0  0  0  0  0  0  0  0  0  0
   -5.1837   -0.0055    0.4044 C   0  0  0  0  0  0  0  0  0  0  0  0
   -4.2301   -0.4059   -0.4819 C   0  0  0  0  0  0  0  0  0  0  0  0
   -5.1000   -1.1124   -1.8413 S   0  0  0  0  0  0  0  0  0  0  0  0
   -6.6609   -0.8400   -1.1652 C   0  0  0  0  0  0  0  0  0  0  0  0
   -6.4851   -0.2449    0.0246 C   0  0  0  0  0  0  0  0  0  0  0  0
   -7.4777    0.1355    0.8736 O   0  0  0  0  0  0  0  0  0  0  0  0
   -2.7556   -0.3429   -0.4727 C   0  0  0  0  0  0  0  0  0  0  0  0
   -1.9620   -0.8229   -1.5075 C   0  0  0  0  0  0  0  0  0  0  0  0
   -0.6035   -0.7846   -1.5388 N   0  0  0  0  0  0  0  0  0  0  0  0
    0.0685   -0.2441   -0.4994 C   0  0  0  0  0  0  0  0  0  0  0  0
   -0.6403    0.2706    0.5988 C   0  0  0  0  0  0  0  0  0  0  0  0
    0.0442    0.8337    1.6831 C   0  0  0  0  0  0  0  0  0  0  0  0
    1.4399    0.8977    1.7005 C   0  0  0  0  0  0  0  0  0  0  0  0
    2.2249    0.4083    0.6476 C   0  0  0  0  0  0  0  0  0  0  0  0
    3.6721    0.5074    0.7322 C   0  0  0  0  0  0  0  0  0  0  0  0
    4.2518    1.0674    1.8184 N   0  0  0  0  0  0  0  0  0  0  0  0
    5.6028    1.1601    1.8977 C   0  0  0  0  0  0  0  0  0  0  0  0
    6.4755    0.7139    0.9251 C   0  0  0  0  0  0  0  0  0  0  0  0
    5.9325    0.1331   -0.2063 C   0  0  0  0  0  0  0  0  0  0  0  0
    4.5284    0.0286   -0.3053 C   0  0  0  0  0  0  0  0  0  0  0  0
    3.8080   -0.5296   -1.3766 C   0  0  0  0  0  0  0  0  0  0  0  0
    4.3041   -1.0802   -2.5302 C   0  0  0  0  0  0  0  0  0  0  0  0
    3.2724   -1.5088   -3.3145 O   0  0  0  0  0  0  0  0  0  0  0  0
    2.1120   -1.2264   -2.6502 C   0  0  0  0  0  0  0  0  0  0  0  0
    2.3913   -0.6217   -1.4494 C   0  0  0  0  0  0  0  0  0  0  0  0
    1.4902   -0.1668   -0.4569 C   0  0  0  0  0  0  0  0  0  0  0  0
   -2.0474    0.2126    0.5943 C   0  0  0  0  0  0  0  0  0  0  0  0
   -7.3007    1.0550    2.7193 H   0  0  0  0  0  0  0  0  0  0  0  0
   -4.5857    0.9793    2.3485 H   0  0  0  0  0  0  0  0  0  0  0  0
   -7.5870   -1.1155   -1.6482 H   0  0  0  0  0  0  0  0  0  0  0  0
   -2.3861   -1.2797   -2.3975 H   0  0  0  0  0  0  0  0  0  0  0  0
   -0.5013    1.2337    2.5359 H   0  0  0  0  0  0  0  0  0  0  0  0
    1.9193    1.3471    2.5713 H   0  0  0  0  0  0  0  0  0  0  0  0
    5.9747    1.6245    2.8074 H   0  0  0  0  0  0  0  0  0  0  0  0
    7.5472    0.8173    1.0483 H   0  0  0  0  0  0  0  0  0  0  0  0
    6.5823   -0.2311   -0.9953 H   0  0  0  0  0  0  0  0  0  0  0  0
    5.2910   -1.2431   -2.9389 H   0  0  0  0  0  0  0  0  0  0  0  0
    1.2063   -1.5166   -3.1646 H   0  0  0  0  0  0  0  0  0  0  0  0
   -2.5775    0.6148    1.4504 H   0  0  0  0  0  0  0  0  0  0  0  0
  1  2  2  0
  2  3  1  0
  3  4  2  0
  4  5  1  0
  5  6  1  0
  6  7  2  0
  7  8  1  0
  4  9  1  0
  9 10  2  0
 10 11  1  0
 11 12  2  0
 12 13  1  0
 13 14  1  0
 14 15  2  0
 15 16  1  0
 16 17  1  0
 17 18  2  0
 18 19  1  0
 19 20  2  0
 20 21  1  0
 21 22  2  0
 22 23  1  0
 23 24  2  0
 24 25  1  0
 25 26  1  0
 26 27  2  0
 27 28  1  0
 13 29  2  0
  8  1  1  0
 29  9  1  0
  7  3  1  0
 28 12  1  0
 28 16  2  0
 22 17  1  0
 27 23  1  0
  1 30  1  0
  2 31  1  0
  6 32  1  0
 10 33  1  0
 14 34  1  0
 15 35  1  0
 19 36  1  0
 20 37  1  0
 21 38  1  0
 24 39  1  0
 26 40  1  0
 29 41  1  0
M  END
