
     RDKit          3D

 39 45  0  0  0  0  0  0  0  0999 V2000
    6.4652   -1.8434    0.5853 C   0  0  0  0  0  0  0  0  0  0  0  0
    5.0786   -1.6630    0.5073 C   0  0  0  0  0  0  0  0  0  0  0  0
    4.8905   -0.3003    0.1828 C   0  0  0  0  0  0  0  0  0  0  0  0
    3.9124    0.6167   -0.0575 C   0  0  0  0  0  0  0  0  0  0  0  0
    4.7430    2.1334   -0.3920 S   0  0  0  0  0  0  0  0  0  0  0  0
    6.3226    1.4736   -0.1965 C   0  0  0  0  0  0  0  0  0  0  0  0
    6.1805    0.1737    0.1048 C   0  0  0  0  0  0  0  0  0  0  0  0
    7.1963   -0.7009    0.3361 O   0  0  0  0  0  0  0  0  0  0  0  0
    2.4392    0.5333   -0.0759 C   0  0  0  0  0  0  0  0  0  0  0  0
    1.7705   -0.6544    0.1854 C   0  0  0  0  0  0  0  0  0  0  0  0
    0.4208   -0.8167    0.1887 N   0  0  0  0  0  0  0  0  0  0  0  0
   -0.3753    0.2427   -0.0802 C   0  0  0  0  0  0  0  0  0  0  0  0
    0.2039    1.4919   -0.3583 C   0  0  0  0  0  0  0  0  0  0  0  0
   -0.6316    2.5768   -0.6342 C   0  0  0  0  0  0  0  0  0  0  0  0
   -1.9781    2.5289   -0.6576 N   0  0  0  0  0  0  0  0  0  0  0  0
   -2.5402    1.3298   -0.3909 C   0  0  0  0  0  0  0  0  0  0  0  0
   -3.9596    1.2976   -0.4199 C   0  0  0  0  0  0  0  0  0  0  0  0
   -4.8299    2.3318   -0.6848 O   0  0  0  0  0  0  0  0  0  0  0  0
   -6.0986    1.8259   -0.5989 C   0  0  0  0  0  0  0  0  0  0  0  0
   -6.0888    0.4813   -0.2833 C   0  0  0  0  0  0  0  0  0  0  0  0
   -4.7359    0.1847   -0.1789 C   0  0  0  0  0  0  0  0  0  0  0  0
   -4.0471   -1.0098    0.1190 C   0  0  0  0  0  0  0  0  0  0  0  0
   -4.5339   -2.2496    0.3973 C   0  0  0  0  0  0  0  0  0  0  0  0
   -3.4093   -3.0211    0.6072 N   0  0  0  0  0  0  0  0  0  0  0  0
   -2.2649   -2.2539    0.4567 C   0  0  0  0  0  0  0  0  0  0  0  0
   -2.6403   -0.9646    0.1446 C   0  0  0  0  0  0  0  0  0  0  0  0
   -1.7897    0.1563   -0.0964 C   0  0  0  0  0  0  0  0  0  0  0  0
    1.6077    1.6225   -0.3528 C   0  0  0  0  0  0  0  0  0  0  0  0
    7.0711   -2.7130    0.8049 H   0  0  0  0  0  0  0  0  0  0  0  0
    4.3476   -2.4403    0.6708 H   0  0  0  0  0  0  0  0  0  0  0  0
    7.2346    2.0419   -0.3064 H   0  0  0  0  0  0  0  0  0  0  0  0
    2.2995   -1.5721    0.4142 H   0  0  0  0  0  0  0  0  0  0  0  0
   -0.2211    3.5601   -0.8542 H   0  0  0  0  0  0  0  0  0  0  0  0
   -6.8870    2.5415   -0.7870 H   0  0  0  0  0  0  0  0  0  0  0  0
   -6.9476   -0.1600   -0.1550 H   0  0  0  0  0  0  0  0  0  0  0  0
   -5.5291   -2.6653    0.4691 H   0  0  0  0  0  0  0  0  0  0  0  0
   -3.4141   -4.0063    0.8381 H   0  0  0  0  0  0  0  0  0  0  0  0
   -1.2927   -2.7103    0.5887 H   0  0  0  0  0  0  0  0  0  0  0  0
    2.0306    2.6004   -0.5712 H   0  0  0  0  0  0  0  0  0  0  0  0
  1  2  2  0
  2  3  1  0
  3  4  2  0
  4  5  1  0
  5  6  1  0
  6  7  2  0
  7  8  1  0
  4  9  1  0
  9 10  2  0
 10 11  1  0
 11 12  2  0
 12 13  1  0
 13 14  1  0
 14 15  2  0
 15 16  1  0
 16 17  1  0
 17 18  1  0
 18 19  1  0
 19 20  2  0
 20 21  1  0
 21 22  1  0
 22 23  2  0
 23 24  1  0
 24 25  1  0
 25 26  2  0
 26 27  1  0
 13 28  2  0
  8  1  1  0
 28  9  1  0
  7  3  1  0
 27 12  1  0
 27 16  2  0
 21 17  2  0
 26 22  1  0
  1 29  1  0
  2 30  1  0
  6 31  1  0
 10 32  1  0
 14 33  1  0
 19 34  1  0
 20 35  1  0
 23 36  1  0
 24 37  1  0
 25 38  1  0
 28 39  1  0
M  END
