
     RDKit          3D

 47 54  0  0  0  0  0  0  0  0999 V2000
   -0.3539   -0.3049   -1.5719 Si  0  0  0  0  0  4  0  0  0  0  0  0
   -1.6636   -0.5685   -0.2259 C   0  0  0  0  0  0  0  0  0  0  0  0
   -1.1427   -0.6534    1.0132 C   0  0  0  0  0  0  0  0  0  0  0  0
    0.3088   -0.5156    1.0195 C   0  0  0  0  0  0  0  0  0  0  0  0
    0.9989   -0.3207   -0.2134 C   0  0  0  0  0  0  0  0  0  0  0  0
    2.4424   -0.1712   -0.3291 C   0  0  0  0  0  0  0  0  0  0  0  0
    3.1309    0.0244   -1.5749 C   0  0  0  0  0  0  0  0  0  0  0  0
    2.5749    0.0994   -2.8050 N   0  0  0  0  0  0  0  0  0  0  0  0
    3.8015    0.3324   -3.9099 S   0  0  0  0  0  0  0  0  0  0  0  0
    5.1204    0.3515   -2.8877 N   0  0  0  0  0  0  0  0  0  0  0  0
    4.5687    0.1742   -1.6944 C   0  0  0  0  0  0  0  0  0  0  0  0
    5.3633    0.1258   -0.5047 C   0  0  0  0  0  0  0  0  0  0  0  0
    6.7688    0.2604   -0.5097 C   0  0  0  0  0  0  0  0  0  0  0  0
    7.2519    0.1725    0.7729 C   0  0  0  0  0  0  0  0  0  0  0  0
    6.0051   -0.0659    1.9163 S   0  0  0  0  0  0  0  0  0  0  0  0
    4.7410   -0.0615    0.7202 C   0  0  0  0  0  0  0  0  0  0  0  0
    3.3279   -0.2081    0.8329 C   0  0  0  0  0  0  0  0  0  0  0  0
    2.5958   -0.4030    2.0329 C   0  0  0  0  0  0  0  0  0  0  0  0
    3.0489   -0.4947    3.3300 C   0  0  0  0  0  0  0  0  0  0  0  0
    1.9623   -0.6845    4.1594 N   0  0  0  0  0  0  0  0  0  0  0  0
    0.8050   -0.7182    3.4221 C   0  0  0  0  0  0  0  0  0  0  0  0
    1.1642   -0.5476    2.1089 C   0  0  0  0  0  0  0  0  0  0  0  0
   -3.0832   -0.6715   -0.5679 C   0  0  0  0  0  0  0  0  0  0  0  0
   -3.5803   -1.9493   -0.8710 C   0  0  0  0  0  0  0  0  0  0  0  0
   -4.9189   -2.1280   -1.2036 C   0  0  0  0  0  0  0  0  0  0  0  0
   -5.7782   -1.0326   -1.2298 C   0  0  0  0  0  0  0  0  0  0  0  0
   -5.3162    0.2551   -0.9175 C   0  0  0  0  0  0  0  0  0  0  0  0
   -6.2003    1.3469   -0.9416 C   0  0  0  0  0  0  0  0  0  0  0  0
   -5.7630    2.6331   -0.6285 C   0  0  0  0  0  0  0  0  0  0  0  0
   -4.4348    2.8449   -0.2846 C   0  0  0  0  0  0  0  0  0  0  0  0
   -3.5433    1.7703   -0.2570 C   0  0  0  0  0  0  0  0  0  0  0  0
   -3.9546    0.4536   -0.5745 C   0  0  0  0  0  0  0  0  0  0  0  0
   -0.2641   -1.4837   -2.4742 H   0  0  0  0  0  0  0  0  0  0  0  0
   -0.4928    1.0308   -2.2098 H   0  0  0  0  0  0  0  0  0  0  0  0
   -1.7166   -0.8046    1.9167 H   0  0  0  0  0  0  0  0  0  0  0  0
    7.3944    0.4111   -1.3816 H   0  0  0  0  0  0  0  0  0  0  0  0
    8.2814    0.2368    1.0980 H   0  0  0  0  0  0  0  0  0  0  0  0
    4.0290   -0.4477    3.7780 H   0  0  0  0  0  0  0  0  0  0  0  0
    2.0140   -0.7840    5.1652 H   0  0  0  0  0  0  0  0  0  0  0  0
   -0.1524   -0.8593    3.9047 H   0  0  0  0  0  0  0  0  0  0  0  0
   -2.9214   -2.8151   -0.8485 H   0  0  0  0  0  0  0  0  0  0  0  0
   -5.2932   -3.1202   -1.4407 H   0  0  0  0  0  0  0  0  0  0  0  0
   -6.8217   -1.1935   -1.4929 H   0  0  0  0  0  0  0  0  0  0  0  0
   -7.2458    1.2016   -1.2054 H   0  0  0  0  0  0  0  0  0  0  0  0
   -6.4605    3.4660   -0.6515 H   0  0  0  0  0  0  0  0  0  0  0  0
   -4.0869    3.8440   -0.0360 H   0  0  0  0  0  0  0  0  0  0  0  0
   -2.5115    1.9727    0.0223 H   0  0  0  0  0  0  0  0  0  0  0  0
  1  2  1  0
  2  3  2  0
  3  4  1  0
  4  5  2  0
  5  6  1  0
  6  7  1  0
  7  8  2  0
  8  9  1  0
  9 10  1  0
 10 11  2  0
 11 12  1  0
 12 13  1  0
 13 14  2  0
 14 15  1  0
 15 16  1  0
 16 17  1  0
 17 18  1  0
 18 19  2  0
 19 20  1  0
 20 21  1  0
 21 22  2  0
  2 23  1  0
 23 24  2  0
 24 25  1  0
 25 26  2  0
 26 27  1  0
 27 28  2  0
 28 29  1  0
 29 30  2  0
 30 31  1  0
 31 32  2  0
  5  1  1  0
 17  6  2  0
 22 18  1  0
 32 23  1  0
 22  4  1  0
 32 27  1  0
 11  7  1  0
 16 12  2  0
  1 33  1  0
  1 34  1  0
  3 35  1  0
 13 36  1  0
 14 37  1  0
 19 38  1  0
 20 39  1  0
 21 40  1  0
 24 41  1  0
 25 42  1  0
 26 43  1  0
 28 44  1  0
 29 45  1  0
 30 46  1  0
 31 47  1  0
M  END
