
     RDKit          3D

 46 53  0  0  0  0  0  0  0  0999 V2000
   -0.7903   -4.4371   -0.3413 Si  0  0  0  0  0  4  0  0  0  0  0  0
    0.8159   -3.5595   -0.0208 C   0  0  0  0  0  0  0  0  0  0  0  0
    0.6439   -2.2236   -0.0143 C   0  0  0  0  0  0  0  0  0  0  0  0
    1.6772   -1.2449    0.0101 C   0  0  0  0  0  0  0  0  0  0  0  0
    3.0594   -1.3374    0.2684 C   0  0  0  0  0  0  0  0  0  0  0  0
    3.5675   -0.0527    0.2101 C   0  0  0  0  0  0  0  0  0  0  0  0
    2.5175    0.7920   -0.0753 N   0  0  0  0  0  0  0  0  0  0  0  0
    1.3661    0.0719   -0.2810 C   0  0  0  0  0  0  0  0  0  0  0  0
    0.0125    0.5636   -0.5333 C   0  0  0  0  0  0  0  0  0  0  0  0
   -0.3489    1.8229   -1.0326 C   0  0  0  0  0  0  0  0  0  0  0  0
    0.5280    2.7192   -1.6020 C   0  0  0  0  0  0  0  0  0  0  0  0
   -0.2529    4.1509   -2.1272 S   0  0  0  0  0  0  0  0  0  0  0  0
   -1.7894    3.5576   -1.6559 C   0  0  0  0  0  0  0  0  0  0  0  0
   -1.7200    2.2941   -1.1086 C   0  0  0  0  0  0  0  0  0  0  0  0
   -2.8557    1.5707   -0.6368 C   0  0  0  0  0  0  0  0  0  0  0  0
   -4.2122    2.0990   -0.6700 C   0  0  0  0  0  0  0  0  0  0  0  0
   -5.3310    1.4433   -0.1346 C   0  0  0  0  0  0  0  0  0  0  0  0
   -4.9653    0.2635    0.4972 C   0  0  0  0  0  0  0  0  0  0  0  0
   -5.8905   -0.4725    1.1979 C   0  0  0  0  0  0  0  0  0  0  0  0
   -5.1507   -1.7880    2.0070 S   0  0  0  0  0  0  0  0  0  0  0  0
   -3.5956   -1.3544    1.4207 C   0  0  0  0  0  0  0  0  0  0  0  0
   -3.6326   -0.3020    0.5304 C   0  0  0  0  0  0  0  0  0  0  0  0
   -2.4752    0.2591   -0.1154 C   0  0  0  0  0  0  0  0  0  0  0  0
   -1.1109   -0.2806   -0.2326 C   0  0  0  0  0  0  0  0  0  0  0  0
   -0.7664   -1.7530   -0.1789 C   0  0  0  0  0  0  0  0  0  0  0  0
   -1.6149   -2.7635   -0.4743 C   0  0  0  0  0  0  0  0  0  0  0  0
    4.9100    0.3923    0.4273 C   0  0  0  0  0  0  0  0  0  0  0  0
    5.4375    1.6733    0.3777 C   0  0  0  0  0  0  0  0  0  0  0  0
    6.8205    1.5720    0.6691 C   0  0  0  0  0  0  0  0  0  0  0  0
    7.0643    0.2384    0.8803 C   0  0  0  0  0  0  0  0  0  0  0  0
    5.9236   -0.4792    0.7371 O   0  0  0  0  0  0  0  0  0  0  0  0
   -0.7957   -5.1730   -1.6284 H   0  0  0  0  0  0  0  0  0  0  0  0
   -1.2677   -5.2020    0.8358 H   0  0  0  0  0  0  0  0  0  0  0  0
    1.7509   -4.0931    0.0379 H   0  0  0  0  0  0  0  0  0  0  0  0
    3.6294   -2.2270    0.5025 H   0  0  0  0  0  0  0  0  0  0  0  0
    2.5852    1.7978   -0.0858 H   0  0  0  0  0  0  0  0  0  0  0  0
    1.5870    2.6286   -1.7850 H   0  0  0  0  0  0  0  0  0  0  0  0
   -2.6497    4.1874   -1.8271 H   0  0  0  0  0  0  0  0  0  0  0  0
   -4.3958    3.0720   -1.1228 H   0  0  0  0  0  0  0  0  0  0  0  0
   -6.3270    1.8648   -0.1590 H   0  0  0  0  0  0  0  0  0  0  0  0
   -6.9506   -0.2949    1.3165 H   0  0  0  0  0  0  0  0  0  0  0  0
   -2.7455   -1.9148    1.7803 H   0  0  0  0  0  0  0  0  0  0  0  0
   -2.6511   -2.6988   -0.7642 H   0  0  0  0  0  0  0  0  0  0  0  0
    4.8947    2.5807    0.1572 H   0  0  0  0  0  0  0  0  0  0  0  0
    7.5470    2.3705    0.7185 H   0  0  0  0  0  0  0  0  0  0  0  0
    7.9473   -0.3338    1.1279 H   0  0  0  0  0  0  0  0  0  0  0  0
  1  2  1  0
  2  3  2  0
  3  4  1  0
  4  5  1  0
  5  6  2  0
  6  7  1  0
  7  8  1  0
  8  9  1  0
  9 10  1  0
 10 11  2  0
 11 12  1  0
 12 13  1  0
 13 14  2  0
 14 15  1  0
 15 16  1  0
 16 17  2  0
 17 18  1  0
 18 19  2  0
 19 20  1  0
 20 21  1  0
 21 22  2  0
 22 23  1  0
 23 24  1  0
 24 25  1  0
 25 26  2  0
  6 27  1  0
 27 28  2  0
 28 29  1  0
 29 30  2  0
 30 31  1  0
 26  1  1  0
 31 27  1  0
 25  3  1  0
  8  4  2  0
 24  9  2  0
 14 10  1  0
 23 15  2  0
 22 18  1  0
  1 32  1  0
  1 33  1  0
  2 34  1  0
  5 35  1  0
  7 36  1  0
 11 37  1  0
 13 38  1  0
 16 39  1  0
 17 40  1  0
 19 41  1  0
 21 42  1  0
 26 43  1  0
 28 44  1  0
 29 45  1  0
 30 46  1  0
M  END
