
     RDKit          3D

 40 46  0  0  0  0  0  0  0  0999 V2000
    6.7420    0.6309    0.2603 C   0  0  0  0  0  0  0  0  0  0  0  0
    5.3437    0.6153    0.1923 C   0  0  0  0  0  0  0  0  0  0  0  0
    4.7877   -0.6806    0.4031 C   0  0  0  0  0  0  0  0  0  0  0  0
    3.5340   -1.2062    0.4364 C   0  0  0  0  0  0  0  0  0  0  0  0
    3.6941   -2.9029    0.7574 S   0  0  0  0  0  0  0  0  0  0  0  0
    5.4086   -2.8418    0.8331 C   0  0  0  0  0  0  0  0  0  0  0  0
    5.8466   -1.5680    0.6204 C   0  0  0  0  0  0  0  0  0  0  0  0
    7.5220   -0.9062    0.5834 S   0  0  0  0  0  0  0  0  0  0  0  0
    2.2327   -0.6172    0.2618 C   0  0  0  0  0  0  0  0  0  0  0  0
    1.8754    0.7008    0.0007 C   0  0  0  0  0  0  0  0  0  0  0  0
    0.4559    0.7685   -0.0839 C   0  0  0  0  0  0  0  0  0  0  0  0
    0.0395   -0.5261    0.1337 C   0  0  0  0  0  0  0  0  0  0  0  0
    1.0760   -1.3628    0.3405 O   0  0  0  0  0  0  0  0  0  0  0  0
   -1.4501   -0.8811    0.1235 C   0  0  0  0  0  0  0  0  0  0  0  0
   -2.0239   -2.0971    0.3185 N   0  0  0  0  0  0  0  0  0  0  0  0
   -3.3895   -1.9664    0.2251 C   0  0  0  0  0  0  0  0  0  0  0  0
   -4.4135   -2.9056    0.3463 C   0  0  0  0  0  0  0  0  0  0  0  0
   -5.7072   -2.4181    0.1908 C   0  0  0  0  0  0  0  0  0  0  0  0
   -5.8981   -1.0683   -0.0677 C   0  0  0  0  0  0  0  0  0  0  0  0
   -4.9229   -0.1441   -0.1886 N   0  0  0  0  0  0  0  0  0  0  0  0
   -3.6578   -0.6175   -0.0371 C   0  0  0  0  0  0  0  0  0  0  0  0
   -2.4125    0.0820   -0.1029 C   0  0  0  0  0  0  0  0  0  0  0  0
   -1.9538    1.4179   -0.3259 C   0  0  0  0  0  0  0  0  0  0  0  0
   -2.8911    2.4406   -0.5620 C   0  0  0  0  0  0  0  0  0  0  0  0
   -2.4713    3.7545   -0.7829 C   0  0  0  0  0  0  0  0  0  0  0  0
   -1.1144    4.0751   -0.7731 C   0  0  0  0  0  0  0  0  0  0  0  0
   -0.1558    3.0864   -0.5422 C   0  0  0  0  0  0  0  0  0  0  0  0
   -0.5471    1.7531   -0.3163 C   0  0  0  0  0  0  0  0  0  0  0  0
    7.3848    1.4917    0.1342 H   0  0  0  0  0  0  0  0  0  0  0  0
    4.7824    1.5185   -0.0028 H   0  0  0  0  0  0  0  0  0  0  0  0
    6.0141   -3.7169    1.0252 H   0  0  0  0  0  0  0  0  0  0  0  0
    2.5528    1.5310   -0.1180 H   0  0  0  0  0  0  0  0  0  0  0  0
   -1.5220   -2.9552    0.5022 H   0  0  0  0  0  0  0  0  0  0  0  0
   -4.2184   -3.9522    0.5492 H   0  0  0  0  0  0  0  0  0  0  0  0
   -6.5604   -3.0837    0.2702 H   0  0  0  0  0  0  0  0  0  0  0  0
   -6.9050   -0.6762   -0.1911 H   0  0  0  0  0  0  0  0  0  0  0  0
   -3.9575    2.2248   -0.5763 H   0  0  0  0  0  0  0  0  0  0  0  0
   -3.2110    4.5306   -0.9635 H   0  0  0  0  0  0  0  0  0  0  0  0
   -0.8020    5.1019   -0.9466 H   0  0  0  0  0  0  0  0  0  0  0  0
    0.8930    3.3706   -0.5414 H   0  0  0  0  0  0  0  0  0  0  0  0
  1  2  2  0
  2  3  1  0
  3  4  2  0
  4  5  1  0
  5  6  1  0
  6  7  2  0
  7  8  1  0
  4  9  1  0
  9 10  2  0
 10 11  1  0
 11 12  2  0
 12 13  1  0
 12 14  1  0
 14 15  1  0
 15 16  1  0
 16 17  2  0
 17 18  1  0
 18 19  2  0
 19 20  1  0
 20 21  2  0
 21 22  1  0
 22 23  1  0
 23 24  2  0
 24 25  1  0
 25 26  2  0
 26 27  1  0
 27 28  2  0
  8  1  1  0
 13  9  1  0
 22 14  2  0
 28 23  1  0
  7  3  1  0
 28 11  1  0
 21 16  1  0
  1 29  1  0
  2 30  1  0
  6 31  1  0
 10 32  1  0
 15 33  1  0
 17 34  1  0
 18 35  1  0
 19 36  1  0
 24 37  1  0
 25 38  1  0
 26 39  1  0
 27 40  1  0
M  END
