
     RDKit          3D

 37 43  0  0  0  0  0  0  0  0999 V2000
    6.6118    1.3754   -0.1309 C   0  0  0  0  0  0  0  0  0  0  0  0
    5.2154    1.2776   -0.1500 C   0  0  0  0  0  0  0  0  0  0  0  0
    4.7434   -0.0408    0.1154 C   0  0  0  0  0  0  0  0  0  0  0  0
    3.5212   -0.6314    0.2056 C   0  0  0  0  0  0  0  0  0  0  0  0
    3.7908   -2.3082    0.5679 S   0  0  0  0  0  0  0  0  0  0  0  0
    5.5002   -2.1489    0.5828 C   0  0  0  0  0  0  0  0  0  0  0  0
    5.8577   -0.8595    0.3202 C   0  0  0  0  0  0  0  0  0  0  0  0
    7.4901   -0.1048    0.2070 S   0  0  0  0  0  0  0  0  0  0  0  0
    2.1914   -0.1011    0.0556 C   0  0  0  0  0  0  0  0  0  0  0  0
    1.7537    1.1845   -0.2291 C   0  0  0  0  0  0  0  0  0  0  0  0
    0.3586    1.1128   -0.2535 C   0  0  0  0  0  0  0  0  0  0  0  0
   -0.5926    2.1414   -0.4983 C   0  0  0  0  0  0  0  0  0  0  0  0
   -0.2313    3.3893   -0.7523 N   0  0  0  0  0  0  0  0  0  0  0  0
   -1.7089    4.1504   -0.9554 S   0  0  0  0  0  0  0  0  0  0  0  0
   -2.7503    2.8685   -0.7134 N   0  0  0  0  0  0  0  0  0  0  0  0
   -2.0046    1.7703   -0.4597 C   0  0  0  0  0  0  0  0  0  0  0  0
   -2.4666    0.4287   -0.1887 C   0  0  0  0  0  0  0  0  0  0  0  0
   -1.4458   -0.5241    0.0421 C   0  0  0  0  0  0  0  0  0  0  0  0
   -1.6561   -1.8290    0.3125 N   0  0  0  0  0  0  0  0  0  0  0  0
   -2.9458   -2.2183    0.3584 C   0  0  0  0  0  0  0  0  0  0  0  0
   -4.0381   -1.3749    0.1488 C   0  0  0  0  0  0  0  0  0  0  0  0
   -5.3574   -1.8513    0.2123 C   0  0  0  0  0  0  0  0  0  0  0  0
   -6.4156   -0.9810   -0.0020 C   0  0  0  0  0  0  0  0  0  0  0  0
   -6.1146    0.3363   -0.2725 C   0  0  0  0  0  0  0  0  0  0  0  0
   -4.8544    0.8184   -0.3388 N   0  0  0  0  0  0  0  0  0  0  0  0
   -3.8069   -0.0127   -0.1332 C   0  0  0  0  0  0  0  0  0  0  0  0
   -0.0908   -0.1583    0.0030 C   0  0  0  0  0  0  0  0  0  0  0  0
    1.0602   -0.8927    0.1912 N   0  0  0  0  0  0  0  0  0  0  0  0
    7.1979    2.2681   -0.3031 H   0  0  0  0  0  0  0  0  0  0  0  0
    4.5929    2.1389   -0.3498 H   0  0  0  0  0  0  0  0  0  0  0  0
    6.1617   -2.9817    0.7777 H   0  0  0  0  0  0  0  0  0  0  0  0
    2.3600    2.0624   -0.3979 H   0  0  0  0  0  0  0  0  0  0  0  0
   -3.0867   -3.2743    0.5780 H   0  0  0  0  0  0  0  0  0  0  0  0
   -5.5636   -2.8969    0.4279 H   0  0  0  0  0  0  0  0  0  0  0  0
   -7.4443   -1.3198    0.0406 H   0  0  0  0  0  0  0  0  0  0  0  0
   -6.8970    1.0689   -0.4498 H   0  0  0  0  0  0  0  0  0  0  0  0
    1.0642   -1.8824    0.4009 H   0  0  0  0  0  0  0  0  0  0  0  0
  1  2  2  0
  2  3  1  0
  3  4  2  0
  4  5  1  0
  5  6  1  0
  6  7  2  0
  7  8  1  0
  4  9  1  0
  9 10  2  0
 10 11  1  0
 11 12  1  0
 12 13  2  0
 13 14  1  0
 14 15  1  0
 15 16  2  0
 16 17  1  0
 17 18  2  0
 18 19  1  0
 19 20  2  0
 20 21  1  0
 21 22  2  0
 22 23  1  0
 23 24  2  0
 24 25  1  0
 25 26  2  0
 18 27  1  0
 27 28  1  0
  8  1  1  0
 28  9  1  0
  7  3  1  0
 27 11  2  0
 16 12  1  0
 26 17  1  0
 26 21  1  0
  1 29  1  0
  2 30  1  0
  6 31  1  0
 10 32  1  0
 20 33  1  0
 22 34  1  0
 23 35  1  0
 24 36  1  0
 28 37  1  0
M  END
