
     RDKit          3D

 37 42  0  0  0  0  0  0  0  0999 V2000
    5.1593    2.1474   -1.6220 C   0  0  0  0  0  0  0  0  0  0  0  0
    4.0386    1.4936   -1.0952 C   0  0  0  0  0  0  0  0  0  0  0  0
    4.3715    0.4894   -0.1359 C   0  0  0  0  0  0  0  0  0  0  0  0
    3.6789   -0.3942    0.6363 C   0  0  0  0  0  0  0  0  0  0  0  0
    4.8490   -1.2905    1.5563 S   0  0  0  0  0  0  0  0  0  0  0  0
    6.1898   -0.4619    0.8827 C   0  0  0  0  0  0  0  0  0  0  0  0
    5.7660    0.4705   -0.0164 C   0  0  0  0  0  0  0  0  0  0  0  0
    6.7190    1.6239   -1.0207 S   0  0  0  0  0  0  0  0  0  0  0  0
    2.2703   -0.6602    0.7810 C   0  0  0  0  0  0  0  0  0  0  0  0
    1.6164   -1.5761    1.5862 C   0  0  0  0  0  0  0  0  0  0  0  0
    0.2170   -1.4546    1.3706 C   0  0  0  0  0  0  0  0  0  0  0  0
   -0.9053   -2.1091    1.8982 C   0  0  0  0  0  0  0  0  0  0  0  0
   -2.1869   -1.7413    1.4618 C   0  0  0  0  0  0  0  0  0  0  0  0
   -2.4042   -0.7271    0.5012 C   0  0  0  0  0  0  0  0  0  0  0  0
   -1.2639   -0.0689   -0.0284 C   0  0  0  0  0  0  0  0  0  0  0  0
   -1.3993    0.9498   -0.9872 C   0  0  0  0  0  0  0  0  0  0  0  0
   -2.6635    1.3277   -1.4316 C   0  0  0  0  0  0  0  0  0  0  0  0
   -3.8144    0.7049   -0.9358 C   0  0  0  0  0  0  0  0  0  0  0  0
   -5.0766    1.1004   -1.3965 C   0  0  0  0  0  0  0  0  0  0  0  0
   -6.2021    0.4733   -0.8947 C   0  0  0  0  0  0  0  0  0  0  0  0
   -6.1580   -0.5075    0.0221 N   0  0  0  0  0  0  0  0  0  0  0  0
   -4.9254   -0.8752    0.4548 C   0  0  0  0  0  0  0  0  0  0  0  0
   -3.7022   -0.3234    0.0302 C   0  0  0  0  0  0  0  0  0  0  0  0
    0.0272   -0.4532    0.4240 C   0  0  0  0  0  0  0  0  0  0  0  0
    1.2860    0.0044    0.0899 N   0  0  0  0  0  0  0  0  0  0  0  0
    5.1577    2.9391   -2.3592 H   0  0  0  0  0  0  0  0  0  0  0  0
    3.0434    1.7616   -1.4173 H   0  0  0  0  0  0  0  0  0  0  0  0
    7.2109   -0.6818    1.1622 H   0  0  0  0  0  0  0  0  0  0  0  0
    2.0878   -2.2717    2.2687 H   0  0  0  0  0  0  0  0  0  0  0  0
   -0.7874   -2.8951    2.6390 H   0  0  0  0  0  0  0  0  0  0  0  0
   -3.0220   -2.2800    1.9025 H   0  0  0  0  0  0  0  0  0  0  0  0
   -0.5356    1.4609   -1.4000 H   0  0  0  0  0  0  0  0  0  0  0  0
   -2.7410    2.1192   -2.1746 H   0  0  0  0  0  0  0  0  0  0  0  0
   -5.1902    1.8859   -2.1364 H   0  0  0  0  0  0  0  0  0  0  0  0
   -7.1966    0.7541   -1.2290 H   0  0  0  0  0  0  0  0  0  0  0  0
   -4.9626   -1.6706    1.1929 H   0  0  0  0  0  0  0  0  0  0  0  0
    1.4488    0.7360   -0.5799 H   0  0  0  0  0  0  0  0  0  0  0  0
  1  2  2  0
  2  3  1  0
  3  4  2  0
  4  5  1  0
  5  6  1  0
  6  7  2  0
  7  8  1  0
  4  9  1  0
  9 10  2  0
 10 11  1  0
 11 12  2  0
 12 13  1  0
 13 14  2  0
 14 15  1  0
 15 16  1  0
 16 17  2  0
 17 18  1  0
 18 19  2  0
 19 20  1  0
 20 21  2  0
 21 22  1  0
 22 23  2  0
 15 24  2  0
 24 25  1  0
  8  1  1  0
 25  9  1  0
  7  3  1  0
 24 11  1  0
 23 14  1  0
 23 18  1  0
  1 26  1  0
  2 27  1  0
  6 28  1  0
 10 29  1  0
 12 30  1  0
 13 31  1  0
 16 32  1  0
 17 33  1  0
 19 34  1  0
 20 35  1  0
 22 36  1  0
 25 37  1  0
M  END
