
     RDKit          3D

 44 50  0  0  0  0  0  0  0  0999 V2000
   -6.7501    1.9882    0.7730 C   0  0  0  0  0  0  0  0  0  0  0  0
   -5.4613    1.4641    0.6177 C   0  0  0  0  0  0  0  0  0  0  0  0
   -5.4716    0.1009    0.2183 C   0  0  0  0  0  0  0  0  0  0  0  0
   -4.5064   -0.8145   -0.0461 C   0  0  0  0  0  0  0  0  0  0  0  0
   -5.2924   -2.3005   -0.4431 S   0  0  0  0  0  0  0  0  0  0  0  0
   -6.8723   -1.6369   -0.2546 C   0  0  0  0  0  0  0  0  0  0  0  0
   -6.7951   -0.3237    0.1103 C   0  0  0  0  0  0  0  0  0  0  0  0
   -8.0834    0.8843    0.4594 S   0  0  0  0  0  0  0  0  0  0  0  0
   -3.0627   -0.7298   -0.0429 C   0  0  0  0  0  0  0  0  0  0  0  0
   -2.2042   -1.5081    0.7711 C   0  0  0  0  0  0  0  0  0  0  0  0
   -0.7682   -1.3921    0.7684 C   0  0  0  0  0  0  0  0  0  0  0  0
   -0.0325   -0.4898   -0.0475 C   0  0  0  0  0  0  0  0  0  0  0  0
    1.4067   -0.3775   -0.0658 C   0  0  0  0  0  0  0  0  0  0  0  0
    2.2311   -0.6725   -1.1859 C   0  0  0  0  0  0  0  0  0  0  0  0
    3.6680   -0.5719   -1.1934 C   0  0  0  0  0  0  0  0  0  0  0  0
    4.4372   -0.1541   -0.0806 C   0  0  0  0  0  0  0  0  0  0  0  0
    5.8800   -0.0617   -0.0802 C   0  0  0  0  0  0  0  0  0  0  0  0
    6.8248   -1.0504   -0.2813 C   0  0  0  0  0  0  0  0  0  0  0  0
    8.1451   -0.6418   -0.2529 N   0  0  0  0  0  0  0  0  0  0  0  0
    8.1878    0.6553   -0.0443 C   0  0  0  0  0  0  0  0  0  0  0  0
    6.6761    1.4463    0.1238 S   0  0  0  0  0  0  0  0  0  0  0  0
    3.6205    0.1249    1.0183 C   0  0  0  0  0  0  0  0  0  0  0  0
    3.9820    0.5213    2.2808 C   0  0  0  0  0  0  0  0  0  0  0  0
    2.8650    0.6884    3.0516 O   0  0  0  0  0  0  0  0  0  0  0  0
    1.7796    0.3870    2.2774 C   0  0  0  0  0  0  0  0  0  0  0  0
    2.1925    0.0173    1.0226 C   0  0  0  0  0  0  0  0  0  0  0  0
   -0.9035    0.2607   -0.8448 C   0  0  0  0  0  0  0  0  0  0  0  0
   -0.5916    1.2399   -1.7537 C   0  0  0  0  0  0  0  0  0  0  0  0
   -1.7355    1.7193   -2.3286 O   0  0  0  0  0  0  0  0  0  0  0  0
   -2.7893    1.0464   -1.7755 C   0  0  0  0  0  0  0  0  0  0  0  0
   -2.3308    0.1511   -0.8427 C   0  0  0  0  0  0  0  0  0  0  0  0
   -7.0066    2.9970    1.0674 H   0  0  0  0  0  0  0  0  0  0  0  0
   -4.5699    2.0552    0.7915 H   0  0  0  0  0  0  0  0  0  0  0  0
   -7.7689   -2.2206   -0.4109 H   0  0  0  0  0  0  0  0  0  0  0  0
   -2.6464   -2.2397    1.4495 H   0  0  0  0  0  0  0  0  0  0  0  0
   -0.2154   -2.0551    1.4375 H   0  0  0  0  0  0  0  0  0  0  0  0
    1.7513   -1.0096   -2.1075 H   0  0  0  0  0  0  0  0  0  0  0  0
    4.1833   -0.8285   -2.1207 H   0  0  0  0  0  0  0  0  0  0  0  0
    6.6037   -2.0976   -0.4509 H   0  0  0  0  0  0  0  0  0  0  0  0
    9.1209    1.2002    0.0155 H   0  0  0  0  0  0  0  0  0  0  0  0
    4.9195    0.7251    2.7790 H   0  0  0  0  0  0  0  0  0  0  0  0
    0.8210    0.4838    2.7678 H   0  0  0  0  0  0  0  0  0  0  0  0
    0.3258    1.6939   -2.1016 H   0  0  0  0  0  0  0  0  0  0  0  0
   -3.7637    1.3258   -2.1514 H   0  0  0  0  0  0  0  0  0  0  0  0
  1  2  2  0
  2  3  1  0
  3  4  2  0
  4  5  1  0
  5  6  1  0
  6  7  2  0
  7  8  1  0
  4  9  1  0
  9 10  2  0
 10 11  1  0
 11 12  2  0
 12 13  1  0
 13 14  2  0
 14 15  1  0
 15 16  2  0
 16 17  1  0
 17 18  2  0
 18 19  1  0
 19 20  2  0
 20 21  1  0
 16 22  1  0
 22 23  2  0
 23 24  1  0
 24 25  1  0
 25 26  2  0
 12 27  1  0
 27 28  2  0
 28 29  1  0
 29 30  1  0
 30 31  2  0
  8  1  1  0
 31  9  1  0
  7  3  1  0
 26 13  1  0
 31 27  1  0
 21 17  1  0
 26 22  1  0
  1 32  1  0
  2 33  1  0
  6 34  1  0
 10 35  1  0
 11 36  1  0
 14 37  1  0
 15 38  1  0
 18 39  1  0
 20 40  1  0
 23 41  1  0
 25 42  1  0
 28 43  1  0
 30 44  1  0
M  END
