
     RDKit          3D

 37 41  0  0  0  0  0  0  0  0999 V2000
   -7.4341   -0.8571   -0.8384 C   0  0  0  0  0  0  0  0  0  0  0  0
   -6.0754   -0.7946   -0.5071 C   0  0  0  0  0  0  0  0  0  0  0  0
   -5.7072    0.4519    0.0718 C   0  0  0  0  0  0  0  0  0  0  0  0
   -4.5444    0.9816    0.5330 C   0  0  0  0  0  0  0  0  0  0  0  0
   -4.8875    2.5922    1.0650 S   0  0  0  0  0  0  0  0  0  0  0  0
   -6.5557    2.4909    0.6517 C   0  0  0  0  0  0  0  0  0  0  0  0
   -6.8395    1.2655    0.1230 C   0  0  0  0  0  0  0  0  0  0  0  0
   -8.3869    0.5785   -0.4910 S   0  0  0  0  0  0  0  0  0  0  0  0
   -3.2365    0.3889    0.6311 C   0  0  0  0  0  0  0  0  0  0  0  0
   -2.9388   -0.8969    1.0339 C   0  0  0  0  0  0  0  0  0  0  0  0
   -1.5402   -1.1670    1.0000 C   0  0  0  0  0  0  0  0  0  0  0  0
   -0.7856   -0.0864    0.5729 C   0  0  0  0  0  0  0  0  0  0  0  0
   -1.8121    1.2432    0.2156 S   0  0  0  0  0  0  0  0  0  0  0  0
    0.6784   -0.0126    0.4153 C   0  0  0  0  0  0  0  0  0  0  0  0
    1.3778    1.1406    0.0801 C   0  0  0  0  0  0  0  0  0  0  0  0
    2.7694    1.0798   -0.0416 C   0  0  0  0  0  0  0  0  0  0  0  0
    3.4616   -0.1201    0.1663 C   0  0  0  0  0  0  0  0  0  0  0  0
    2.6664   -1.2103    0.5122 C   0  0  0  0  0  0  0  0  0  0  0  0
    1.3134   -1.1903    0.6343 N   0  0  0  0  0  0  0  0  0  0  0  0
    4.9277   -0.2022    0.0374 C   0  0  0  0  0  0  0  0  0  0  0  0
    5.6010   -1.3707   -0.3237 C   0  0  0  0  0  0  0  0  0  0  0  0
    6.9922   -1.3584   -0.4205 C   0  0  0  0  0  0  0  0  0  0  0  0
    7.6831   -0.1841   -0.1587 C   0  0  0  0  0  0  0  0  0  0  0  0
    6.9499    0.9358    0.1852 C   0  0  0  0  0  0  0  0  0  0  0  0
    5.6019    0.9514    0.2836 N   0  0  0  0  0  0  0  0  0  0  0  0
   -7.9518   -1.6935   -1.2882 H   0  0  0  0  0  0  0  0  0  0  0  0
   -5.3986   -1.6200   -0.6910 H   0  0  0  0  0  0  0  0  0  0  0  0
   -7.2428    3.3113    0.8068 H   0  0  0  0  0  0  0  0  0  0  0  0
   -3.6838   -1.6162    1.3516 H   0  0  0  0  0  0  0  0  0  0  0  0
   -1.0963   -2.1157    1.2805 H   0  0  0  0  0  0  0  0  0  0  0  0
    0.8785    2.0884   -0.0865 H   0  0  0  0  0  0  0  0  0  0  0  0
    3.3163    1.9845   -0.3030 H   0  0  0  0  0  0  0  0  0  0  0  0
    3.1012   -2.1826    0.7288 H   0  0  0  0  0  0  0  0  0  0  0  0
    5.0657   -2.2871   -0.5490 H   0  0  0  0  0  0  0  0  0  0  0  0
    7.5292   -2.2597   -0.7027 H   0  0  0  0  0  0  0  0  0  0  0  0
    8.7642   -0.1409   -0.2249 H   0  0  0  0  0  0  0  0  0  0  0  0
    7.4392    1.8821    0.3977 H   0  0  0  0  0  0  0  0  0  0  0  0
  1  2  2  0
  2  3  1  0
  3  4  2  0
  4  5  1  0
  5  6  1  0
  6  7  2  0
  7  8  1  0
  4  9  1  0
  9 10  2  0
 10 11  1  0
 11 12  2  0
 12 13  1  0
 12 14  1  0
 14 15  2  0
 15 16  1  0
 16 17  2  0
 17 18  1  0
 18 19  2  0
 17 20  1  0
 20 21  2  0
 21 22  1  0
 22 23  2  0
 23 24  1  0
 24 25  2  0
  8  1  1  0
 13  9  1  0
 19 14  1  0
 25 20  1  0
  7  3  1  0
  1 26  1  0
  2 27  1  0
  6 28  1  0
 10 29  1  0
 11 30  1  0
 15 31  1  0
 16 32  1  0
 18 33  1  0
 21 34  1  0
 22 35  1  0
 23 36  1  0
 24 37  1  0
M  END
