
     RDKit          3D

 34 38  0  0  0  0  0  0  0  0999 V2000
    6.3975    2.5892   -0.2946 C   0  0  0  0  0  0  0  0  0  0  0  0
    5.1373    1.9852   -0.2200 C   0  0  0  0  0  0  0  0  0  0  0  0
    5.2082    0.5852    0.0278 C   0  0  0  0  0  0  0  0  0  0  0  0
    4.2852   -0.4027    0.1783 C   0  0  0  0  0  0  0  0  0  0  0  0
    5.1636   -1.8709    0.4584 S   0  0  0  0  0  0  0  0  0  0  0  0
    6.7018   -1.1077    0.3629 C   0  0  0  0  0  0  0  0  0  0  0  0
    6.5529    0.2268    0.1246 C   0  0  0  0  0  0  0  0  0  0  0  0
    7.7813    1.5292   -0.0734 S   0  0  0  0  0  0  0  0  0  0  0  0
    2.8445   -0.3196    0.1275 C   0  0  0  0  0  0  0  0  0  0  0  0
    2.2241    0.8240   -0.0889 N   0  0  0  0  0  0  0  0  0  0  0  0
    0.8553    0.6279   -0.0888 C   0  0  0  0  0  0  0  0  0  0  0  0
    0.4311   -0.6670    0.1279 C   0  0  0  0  0  0  0  0  0  0  0  0
    1.7985   -1.6732    0.3389 S   0  0  0  0  0  0  0  0  0  0  0  0
   -0.9236   -1.1338    0.1758 C   0  0  0  0  0  0  0  0  0  0  0  0
   -1.4238   -2.4081    0.3869 C   0  0  0  0  0  0  0  0  0  0  0  0
   -2.8379   -2.3209    0.3361 C   0  0  0  0  0  0  0  0  0  0  0  0
   -3.1444   -0.9967    0.0961 C   0  0  0  0  0  0  0  0  0  0  0  0
   -1.9836   -0.2825   -0.0001 O   0  0  0  0  0  0  0  0  0  0  0  0
   -4.3874   -0.2463   -0.0667 C   0  0  0  0  0  0  0  0  0  0  0  0
   -5.6323   -0.8656    0.0107 C   0  0  0  0  0  0  0  0  0  0  0  0
   -6.7805   -0.0928   -0.1537 C   0  0  0  0  0  0  0  0  0  0  0  0
   -6.6557    1.2703   -0.3897 C   0  0  0  0  0  0  0  0  0  0  0  0
   -5.3818    1.8074   -0.4520 C   0  0  0  0  0  0  0  0  0  0  0  0
   -4.2529    1.0832   -0.2966 N   0  0  0  0  0  0  0  0  0  0  0  0
    6.6011    3.6363   -0.4735 H   0  0  0  0  0  0  0  0  0  0  0  0
    4.2170    2.5454   -0.3416 H   0  0  0  0  0  0  0  0  0  0  0  0
    7.6297   -1.6501    0.4816 H   0  0  0  0  0  0  0  0  0  0  0  0
    0.1988    1.4751   -0.2541 H   0  0  0  0  0  0  0  0  0  0  0  0
   -0.8390   -3.3014    0.5583 H   0  0  0  0  0  0  0  0  0  0  0  0
   -3.5419   -3.1309    0.4606 H   0  0  0  0  0  0  0  0  0  0  0  0
   -5.7228   -1.9300    0.1951 H   0  0  0  0  0  0  0  0  0  0  0  0
   -7.7633   -0.5521   -0.0978 H   0  0  0  0  0  0  0  0  0  0  0  0
   -7.5286    1.8998   -0.5220 H   0  0  0  0  0  0  0  0  0  0  0  0
   -5.2282    2.8672   -0.6340 H   0  0  0  0  0  0  0  0  0  0  0  0
  1  2  2  0
  2  3  1  0
  3  4  2  0
  4  5  1  0
  5  6  1  0
  6  7  2  0
  7  8  1  0
  4  9  1  0
  9 10  2  0
 10 11  1  0
 11 12  2  0
 12 13  1  0
 12 14  1  0
 14 15  2  0
 15 16  1  0
 16 17  2  0
 17 18  1  0
 17 19  1  0
 19 20  2  0
 20 21  1  0
 21 22  2  0
 22 23  1  0
 23 24  2  0
  8  1  1  0
 13  9  1  0
 18 14  1  0
 24 19  1  0
  7  3  1  0
  1 25  1  0
  2 26  1  0
  6 27  1  0
 11 28  1  0
 15 29  1  0
 16 30  1  0
 20 31  1  0
 21 32  1  0
 22 33  1  0
 23 34  1  0
M  END
