
     RDKit          3D

 36 41  0  0  0  0  0  0  0  0999 V2000
   -7.7952   -0.6175    0.7319 C   0  0  0  0  0  0  0  0  0  0  0  0
   -6.4003   -0.5355    0.8096 C   0  0  0  0  0  0  0  0  0  0  0  0
   -5.7877   -0.3085   -0.4553 C   0  0  0  0  0  0  0  0  0  0  0  0
   -4.5032   -0.1604   -0.8782 C   0  0  0  0  0  0  0  0  0  0  0  0
   -4.5657    0.0875   -2.5930 S   0  0  0  0  0  0  0  0  0  0  0  0
   -6.2807   -0.0169   -2.6646 C   0  0  0  0  0  0  0  0  0  0  0  0
   -6.7930   -0.2341   -1.4198 C   0  0  0  0  0  0  0  0  0  0  0  0
   -8.4966   -0.4294   -0.8680 S   0  0  0  0  0  0  0  0  0  0  0  0
   -3.2807   -0.1914   -0.1102 C   0  0  0  0  0  0  0  0  0  0  0  0
   -3.2875   -0.3836    1.1952 N   0  0  0  0  0  0  0  0  0  0  0  0
   -1.9946   -0.3689    1.6840 C   0  0  0  0  0  0  0  0  0  0  0  0
   -0.9981   -0.1652    0.7518 C   0  0  0  0  0  0  0  0  0  0  0  0
   -1.7135    0.0142   -0.7947 S   0  0  0  0  0  0  0  0  0  0  0  0
    0.4206   -0.0997    0.9528 C   0  0  0  0  0  0  0  0  0  0  0  0
    1.1400   -0.2241    2.1272 C   0  0  0  0  0  0  0  0  0  0  0  0
    2.5097   -0.0836    1.7949 C   0  0  0  0  0  0  0  0  0  0  0  0
    2.5873    0.1224    0.4286 C   0  0  0  0  0  0  0  0  0  0  0  0
    1.3079    0.1099   -0.0692 O   0  0  0  0  0  0  0  0  0  0  0  0
    3.7437    0.3228   -0.4078 C   0  0  0  0  0  0  0  0  0  0  0  0
    3.5498    0.5601   -2.1106 S   0  0  0  0  0  0  0  0  0  0  0  0
    5.2335    0.7125   -2.3800 C   0  0  0  0  0  0  0  0  0  0  0  0
    5.9358    0.5876   -1.2110 C   0  0  0  0  0  0  0  0  0  0  0  0
    7.2942    0.6709   -1.1588 N   0  0  0  0  0  0  0  0  0  0  0  0
    7.7382    0.5131    0.1168 C   0  0  0  0  0  0  0  0  0  0  0  0
    6.9211    0.2945    1.2315 C   0  0  0  0  0  0  0  0  0  0  0  0
    5.5627    0.2074    1.2057 N   0  0  0  0  0  0  0  0  0  0  0  0
    5.0816    0.3620   -0.0655 C   0  0  0  0  0  0  0  0  0  0  0  0
   -8.4785   -0.7841    1.5536 H   0  0  0  0  0  0  0  0  0  0  0  0
   -5.8645   -0.6373    1.7463 H   0  0  0  0  0  0  0  0  0  0  0  0
   -6.8319    0.0822   -3.5897 H   0  0  0  0  0  0  0  0  0  0  0  0
   -1.8410   -0.5148    2.7462 H   0  0  0  0  0  0  0  0  0  0  0  0
    0.7325   -0.3964    3.1135 H   0  0  0  0  0  0  0  0  0  0  0  0
    3.3466   -0.1280    2.4786 H   0  0  0  0  0  0  0  0  0  0  0  0
    5.6242    0.8845   -3.3724 H   0  0  0  0  0  0  0  0  0  0  0  0
    8.8171    0.5681    0.2340 H   0  0  0  0  0  0  0  0  0  0  0  0
    7.3660    0.1795    2.2163 H   0  0  0  0  0  0  0  0  0  0  0  0
  1  2  2  0
  2  3  1  0
  3  4  2  0
  4  5  1  0
  5  6  1  0
  6  7  2  0
  7  8  1  0
  4  9  1  0
  9 10  2  0
 10 11  1  0
 11 12  2  0
 12 13  1  0
 12 14  1  0
 14 15  2  0
 15 16  1  0
 16 17  2  0
 17 18  1  0
 17 19  1  0
 19 20  1  0
 20 21  1  0
 21 22  2  0
 22 23  1  0
 23 24  2  0
 24 25  1  0
 25 26  2  0
 26 27  1  0
  8  1  1  0
 13  9  1  0
 18 14  1  0
 27 19  2  0
  7  3  1  0
 27 22  1  0
  1 28  1  0
  2 29  1  0
  6 30  1  0
 11 31  1  0
 15 32  1  0
 16 33  1  0
 21 34  1  0
 24 35  1  0
 25 36  1  0
M  END
