
     RDKit          3D

 39 42  0  0  0  0  0  0  0  0999 V2000
    3.3592   -1.1184    2.3542 C   0  0  0  0  0  0  0  0  0  0  0  0
    2.0035   -1.3562    2.1261 C   0  0  0  0  0  0  0  0  0  0  0  0
    1.3831   -0.8911    0.9611 C   0  0  0  0  0  0  0  0  0  0  0  0
    2.1549   -0.2439   -0.0138 C   0  0  0  0  0  0  0  0  0  0  0  0
    1.5427    0.1690   -1.2052 C   0  0  0  0  0  0  0  0  0  0  0  0
    2.3226    0.7605   -2.2053 C   0  0  0  0  0  0  0  0  0  0  0  0
    3.6802    1.0058   -1.9974 C   0  0  0  0  0  0  0  0  0  0  0  0
    4.2821    0.6302   -0.7968 C   0  0  0  0  0  0  0  0  0  0  0  0
    3.5341   -0.0098    0.2022 C   0  0  0  0  0  0  0  0  0  0  0  0
    4.1200   -0.4423    1.4009 C   0  0  0  0  0  0  0  0  0  0  0  0
    0.1917   -0.1205   -1.4527 N   0  0  0  0  0  0  0  0  0  0  0  0
   -0.6567   -0.3804   -0.2855 C   0  0  0  0  0  0  0  0  0  0  0  0
   -1.0844    0.9634    0.3639 C   0  0  0  0  0  0  0  0  0  0  0  0
   -2.2410    1.6931   -0.3231 C   0  0  0  0  0  0  0  0  0  0  0  0
   -3.6079    1.2624    0.2057 C   0  0  0  0  0  0  0  0  0  0  0  0
   -4.0625   -0.1269   -0.2259 C   0  0  0  0  0  0  0  0  0  0  0  0
   -3.0853   -1.2576    0.0893 C   0  0  0  0  0  0  0  0  0  0  0  0
   -1.8448   -1.2311   -0.8058 C   0  0  0  0  0  0  0  0  0  0  0  0
    0.0346   -1.1949    0.7186 N   0  0  0  0  0  0  0  0  0  0  0  0
    3.8257   -1.4743    3.2688 H   0  0  0  0  0  0  0  0  0  0  0  0
    1.4318   -1.9098    2.8654 H   0  0  0  0  0  0  0  0  0  0  0  0
    1.8749    1.0345   -3.1563 H   0  0  0  0  0  0  0  0  0  0  0  0
    4.2717    1.4771   -2.7776 H   0  0  0  0  0  0  0  0  0  0  0  0
    5.3435    0.8191   -0.6554 H   0  0  0  0  0  0  0  0  0  0  0  0
    5.1778   -0.2757    1.5893 H   0  0  0  0  0  0  0  0  0  0  0  0
   -0.2246    0.5140   -2.1228 H   0  0  0  0  0  0  0  0  0  0  0  0
   -0.2253    1.6479    0.3825 H   0  0  0  0  0  0  0  0  0  0  0  0
   -1.3413    0.8087    1.4208 H   0  0  0  0  0  0  0  0  0  0  0  0
   -2.1338    2.7635   -0.1046 H   0  0  0  0  0  0  0  0  0  0  0  0
   -2.1920    1.5962   -1.4130 H   0  0  0  0  0  0  0  0  0  0  0  0
   -3.6150    1.3226    1.3012 H   0  0  0  0  0  0  0  0  0  0  0  0
   -4.3565    1.9856   -0.1416 H   0  0  0  0  0  0  0  0  0  0  0  0
   -5.0145   -0.3422    0.2755 H   0  0  0  0  0  0  0  0  0  0  0  0
   -4.2821   -0.1189   -1.3009 H   0  0  0  0  0  0  0  0  0  0  0  0
   -2.8199   -1.2619    1.1520 H   0  0  0  0  0  0  0  0  0  0  0  0
   -3.6118   -2.2019   -0.1006 H   0  0  0  0  0  0  0  0  0  0  0  0
   -2.1398   -0.9022   -1.8119 H   0  0  0  0  0  0  0  0  0  0  0  0
   -1.4994   -2.2669   -0.9388 H   0  0  0  0  0  0  0  0  0  0  0  0
   -0.4954   -1.3266    1.5709 H   0  0  0  0  0  0  0  0  0  0  0  0
  1  2  2  0
  2  3  1  0
  3  4  2  0
  4  5  1  0
  5  6  2  0
  6  7  1  0
  7  8  2  0
  8  9  1  0
  9 10  2  0
  5 11  1  0
 11 12  1  0
 12 13  1  0
 13 14  1  0
 14 15  1  0
 15 16  1  0
 16 17  1  0
 17 18  1  0
 12 19  1  0
 10  1  1  0
 18 12  1  0
 19  3  1  0
  9  4  1  0
  1 20  1  0
  2 21  1  0
  6 22  1  0
  7 23  1  0
  8 24  1  0
 10 25  1  0
 11 26  1  0
 13 27  1  0
 13 28  1  0
 14 29  1  0
 14 30  1  0
 15 31  1  0
 15 32  1  0
 16 33  1  0
 16 34  1  0
 17 35  1  0
 17 36  1  0
 18 37  1  0
 18 38  1  0
 19 39  1  0
M  END
