
     RDKit          3D

 40 45  0  0  0  0  0  0  0  0999 V2000
   -1.8344   -4.1218   -0.3264 Si  0  0  0  0  0  4  0  0  0  0  0  0
   -0.1515   -3.3427   -0.3630 C   0  0  0  0  0  0  0  0  0  0  0  0
   -0.2245   -2.0162   -0.1386 C   0  0  0  0  0  0  0  0  0  0  0  0
    0.8745   -1.1156   -0.0984 C   0  0  0  0  0  0  0  0  0  0  0  0
    2.2609   -1.3131   -0.2660 C   0  0  0  0  0  0  0  0  0  0  0  0
    2.8758   -0.0805   -0.1242 C   0  0  0  0  0  0  0  0  0  0  0  0
    1.8771    0.8380    0.1236 N   0  0  0  0  0  0  0  0  0  0  0  0
    0.6478    0.2230    0.1429 C   0  0  0  0  0  0  0  0  0  0  0  0
   -0.6666    0.8394    0.3721 C   0  0  0  0  0  0  0  0  0  0  0  0
   -0.7815    2.2099    0.6076 C   0  0  0  0  0  0  0  0  0  0  0  0
   -2.0318    2.7719    0.8217 C   0  0  0  0  0  0  0  0  0  0  0  0
   -3.1828    1.9769    0.8039 C   0  0  0  0  0  0  0  0  0  0  0  0
   -4.4297    2.5798    1.0243 C   0  0  0  0  0  0  0  0  0  0  0  0
   -5.5863    1.8182    1.0126 C   0  0  0  0  0  0  0  0  0  0  0  0
   -5.4525    0.4704    0.7789 C   0  0  0  0  0  0  0  0  0  0  0  0
   -4.2663   -0.1380    0.5634 N   0  0  0  0  0  0  0  0  0  0  0  0
   -3.1137    0.5800    0.5684 C   0  0  0  0  0  0  0  0  0  0  0  0
   -1.8337    0.0050    0.3494 C   0  0  0  0  0  0  0  0  0  0  0  0
   -1.6017   -1.4714    0.0850 C   0  0  0  0  0  0  0  0  0  0  0  0
   -2.5466   -2.4366    0.0191 C   0  0  0  0  0  0  0  0  0  0  0  0
    4.2700    0.2421   -0.2075 C   0  0  0  0  0  0  0  0  0  0  0  0
    5.3428   -0.5979   -0.4493 C   0  0  0  0  0  0  0  0  0  0  0  0
    6.5257    0.1803   -0.4375 C   0  0  0  0  0  0  0  0  0  0  0  0
    6.1527    1.4798   -0.1889 C   0  0  0  0  0  0  0  0  0  0  0  0
    4.7885    1.5070   -0.0514 N   0  0  0  0  0  0  0  0  0  0  0  0
   -2.2398   -4.6587   -1.6485 H   0  0  0  0  0  0  0  0  0  0  0  0
   -2.0000   -5.0613    0.8097 H   0  0  0  0  0  0  0  0  0  0  0  0
    0.7381   -3.9232   -0.5448 H   0  0  0  0  0  0  0  0  0  0  0  0
    2.7634   -2.2492   -0.4683 H   0  0  0  0  0  0  0  0  0  0  0  0
    2.0259    1.8227    0.2704 H   0  0  0  0  0  0  0  0  0  0  0  0
    0.0867    2.8597    0.6293 H   0  0  0  0  0  0  0  0  0  0  0  0
   -2.1012    3.8425    1.0037 H   0  0  0  0  0  0  0  0  0  0  0  0
   -4.5069    3.6491    1.2069 H   0  0  0  0  0  0  0  0  0  0  0  0
   -6.5594    2.2636    1.1805 H   0  0  0  0  0  0  0  0  0  0  0  0
   -6.3177   -0.1857    0.7559 H   0  0  0  0  0  0  0  0  0  0  0  0
   -3.6115   -2.3360    0.1394 H   0  0  0  0  0  0  0  0  0  0  0  0
    5.2826   -1.6653   -0.6178 H   0  0  0  0  0  0  0  0  0  0  0  0
    7.5368   -0.1725   -0.5938 H   0  0  0  0  0  0  0  0  0  0  0  0
    6.7372    2.3853   -0.0979 H   0  0  0  0  0  0  0  0  0  0  0  0
    4.2535    2.3411    0.1370 H   0  0  0  0  0  0  0  0  0  0  0  0
  1  2  1  0
  2  3  2  0
  3  4  1  0
  4  5  1  0
  5  6  2  0
  6  7  1  0
  7  8  1  0
  8  9  1  0
  9 10  2  0
 10 11  1  0
 11 12  2  0
 12 13  1  0
 13 14  2  0
 14 15  1  0
 15 16  2  0
 16 17  1  0
 17 18  2  0
 18 19  1  0
 19 20  2  0
  6 21  1  0
 21 22  2  0
 22 23  1  0
 23 24  2  0
 24 25  1  0
 20  1  1  0
 25 21  1  0
 19  3  1  0
  8  4  2  0
 18  9  1  0
 17 12  1  0
  1 26  1  0
  1 27  1  0
  2 28  1  0
  5 29  1  0
  7 30  1  0
 10 31  1  0
 11 32  1  0
 13 33  1  0
 14 34  1  0
 15 35  1  0
 20 36  1  0
 22 37  1  0
 23 38  1  0
 24 39  1  0
 25 40  1  0
M  END
