
     RDKit          3D

 43 49  0  0  0  0  0  0  0  0999 V2000
    6.1995   -2.0323    1.4780 C   0  0  0  0  0  0  0  0  0  0  0  0
    6.0710   -1.0867    0.4856 C   0  0  0  0  0  0  0  0  0  0  0  0
    4.7114   -0.7957    0.2885 C   0  0  0  0  0  0  0  0  0  0  0  0
    4.1789    0.0906   -0.6849 C   0  0  0  0  0  0  0  0  0  0  0  0
    4.8460    0.7772   -1.6553 C   0  0  0  0  0  0  0  0  0  0  0  0
    3.8533    1.3661   -2.4036 N   0  0  0  0  0  0  0  0  0  0  0  0
    2.6112    1.0248   -1.8947 C   0  0  0  0  0  0  0  0  0  0  0  0
    2.7863    0.2841   -0.7437 C   0  0  0  0  0  0  0  0  0  0  0  0
    1.7691   -0.2873    0.0787 C   0  0  0  0  0  0  0  0  0  0  0  0
    2.3593   -1.2584    0.9401 C   0  0  0  0  0  0  0  0  0  0  0  0
    1.4848   -2.0530    1.6808 C   0  0  0  0  0  0  0  0  0  0  0  0
    0.1324   -1.9831    1.6370 N   0  0  0  0  0  0  0  0  0  0  0  0
   -0.4517   -1.0271    0.9088 C   0  0  0  0  0  0  0  0  0  0  0  0
   -1.8716   -1.0111    0.9603 C   0  0  0  0  0  0  0  0  0  0  0  0
   -2.7402   -0.0719    0.3428 C   0  0  0  0  0  0  0  0  0  0  0  0
   -4.1942   -0.1274    0.4258 C   0  0  0  0  0  0  0  0  0  0  0  0
   -5.0214    0.0652   -0.6805 C   0  0  0  0  0  0  0  0  0  0  0  0
   -6.4029   -0.0282   -0.5243 C   0  0  0  0  0  0  0  0  0  0  0  0
   -6.9267   -0.3194    0.7277 C   0  0  0  0  0  0  0  0  0  0  0  0
   -6.0421   -0.5121    1.7736 C   0  0  0  0  0  0  0  0  0  0  0  0
   -4.6995   -0.4288    1.6489 N   0  0  0  0  0  0  0  0  0  0  0  0
   -1.9766    0.9213   -0.2714 C   0  0  0  0  0  0  0  0  0  0  0  0
   -2.4396    2.1016   -0.8048 C   0  0  0  0  0  0  0  0  0  0  0  0
   -1.3422    2.8455   -1.1653 N   0  0  0  0  0  0  0  0  0  0  0  0
   -0.1893    2.1644   -0.8469 C   0  0  0  0  0  0  0  0  0  0  0  0
   -0.5429    0.9277   -0.3599 C   0  0  0  0  0  0  0  0  0  0  0  0
    0.3246   -0.0896    0.1510 C   0  0  0  0  0  0  0  0  0  0  0  0
    3.7853   -1.4721    1.0659 C   0  0  0  0  0  0  0  0  0  0  0  0
    4.6854   -2.5390    2.1071 S   0  0  0  0  0  0  0  0  0  0  0  0
    7.1118   -2.4649    1.8650 H   0  0  0  0  0  0  0  0  0  0  0  0
    6.9085   -0.6543   -0.0456 H   0  0  0  0  0  0  0  0  0  0  0  0
    5.8890    0.8733   -1.9222 H   0  0  0  0  0  0  0  0  0  0  0  0
    4.0032    1.9118   -3.2425 H   0  0  0  0  0  0  0  0  0  0  0  0
    1.7287    1.3226   -2.4405 H   0  0  0  0  0  0  0  0  0  0  0  0
    1.8443   -2.8321    2.3486 H   0  0  0  0  0  0  0  0  0  0  0  0
   -2.3424   -1.8030    1.5499 H   0  0  0  0  0  0  0  0  0  0  0  0
   -4.5999    0.2692   -1.6595 H   0  0  0  0  0  0  0  0  0  0  0  0
   -7.0612    0.1179   -1.3756 H   0  0  0  0  0  0  0  0  0  0  0  0
   -7.9960   -0.4015    0.8845 H   0  0  0  0  0  0  0  0  0  0  0  0
   -6.3978   -0.7484    2.7723 H   0  0  0  0  0  0  0  0  0  0  0  0
   -3.4333    2.5156   -0.9098 H   0  0  0  0  0  0  0  0  0  0  0  0
   -1.3755    3.7880   -1.5322 H   0  0  0  0  0  0  0  0  0  0  0  0
    0.7632    2.6603   -0.9574 H   0  0  0  0  0  0  0  0  0  0  0  0
  1  2  2  0
  2  3  1  0
  3  4  1  0
  4  5  2  0
  5  6  1  0
  6  7  1  0
  7  8  2  0
  8  9  1  0
  9 10  2  0
 10 11  1  0
 11 12  2  0
 12 13  1  0
 13 14  1  0
 14 15  2  0
 15 16  1  0
 16 17  2  0
 17 18  1  0
 18 19  2  0
 19 20  1  0
 20 21  2  0
 15 22  1  0
 22 23  2  0
 23 24  1  0
 24 25  1  0
 25 26  2  0
 26 27  1  0
 10 28  1  0
 28 29  1  0
 29  1  1  0
 28  3  2  0
  8  4  1  0
 27  9  1  0
 27 13  2  0
 21 16  1  0
 26 22  1  0
  1 30  1  0
  2 31  1  0
  5 32  1  0
  6 33  1  0
  7 34  1  0
 11 35  1  0
 14 36  1  0
 17 37  1  0
 18 38  1  0
 19 39  1  0
 20 40  1  0
 23 41  1  0
 24 42  1  0
 25 43  1  0
M  END
