
     RDKit          3D

 40 46  0  0  0  0  0  0  0  0999 V2000
    5.2403    3.0513    0.0452 C   0  0  0  0  0  0  0  0  0  0  0  0
    5.6846    1.7395    0.0606 C   0  0  0  0  0  0  0  0  0  0  0  0
    4.5108    0.9971    0.0662 C   0  0  0  0  0  0  0  0  0  0  0  0
    4.2299   -0.3878    0.0940 C   0  0  0  0  0  0  0  0  0  0  0  0
    5.1490   -1.3970    0.1369 C   0  0  0  0  0  0  0  0  0  0  0  0
    4.4108   -2.5645    0.1845 N   0  0  0  0  0  0  0  0  0  0  0  0
    3.0498   -2.2815    0.1767 C   0  0  0  0  0  0  0  0  0  0  0  0
    2.9291   -0.9219    0.0994 C   0  0  0  0  0  0  0  0  0  0  0  0
    1.7568   -0.1004    0.0657 C   0  0  0  0  0  0  0  0  0  0  0  0
    1.9927    1.2647    0.0621 C   0  0  0  0  0  0  0  0  0  0  0  0
    0.8188    1.9551    0.0696 O   0  0  0  0  0  0  0  0  0  0  0  0
   -0.1820    1.0160    0.0643 C   0  0  0  0  0  0  0  0  0  0  0  0
   -1.5622    1.3139    0.0751 C   0  0  0  0  0  0  0  0  0  0  0  0
   -2.5279    0.2773    0.0694 C   0  0  0  0  0  0  0  0  0  0  0  0
   -3.9639    0.5320    0.1025 C   0  0  0  0  0  0  0  0  0  0  0  0
   -4.8180   -0.0760    1.0219 C   0  0  0  0  0  0  0  0  0  0  0  0
   -6.1755    0.2366    0.9980 C   0  0  0  0  0  0  0  0  0  0  0  0
   -6.6458    1.1515    0.0657 C   0  0  0  0  0  0  0  0  0  0  0  0
   -5.7333    1.7230   -0.8031 C   0  0  0  0  0  0  0  0  0  0  0  0
   -4.4123    1.4392   -0.8004 N   0  0  0  0  0  0  0  0  0  0  0  0
   -1.9298   -0.9897    0.0026 C   0  0  0  0  0  0  0  0  0  0  0  0
   -2.5747   -2.2011   -0.1159 C   0  0  0  0  0  0  0  0  0  0  0  0
   -1.6676   -3.2235   -0.1883 O   0  0  0  0  0  0  0  0  0  0  0  0
   -0.4145   -2.6685   -0.1387 C   0  0  0  0  0  0  0  0  0  0  0  0
   -0.5530   -1.3223   -0.0183 C   0  0  0  0  0  0  0  0  0  0  0  0
    0.3849   -0.2556    0.0419 C   0  0  0  0  0  0  0  0  0  0  0  0
    3.4283    1.8334    0.0564 C   0  0  0  0  0  0  0  0  0  0  0  0
    3.8702    3.1207    0.0443 O   0  0  0  0  0  0  0  0  0  0  0  0
    5.7440    4.0082    0.0358 H   0  0  0  0  0  0  0  0  0  0  0  0
    6.7115    1.4066    0.0682 H   0  0  0  0  0  0  0  0  0  0  0  0
    6.2300   -1.4181    0.1491 H   0  0  0  0  0  0  0  0  0  0  0  0
    4.8044   -3.4956    0.2357 H   0  0  0  0  0  0  0  0  0  0  0  0
    2.3536   -3.0977    0.2454 H   0  0  0  0  0  0  0  0  0  0  0  0
   -1.8818    2.3535    0.0910 H   0  0  0  0  0  0  0  0  0  0  0  0
   -4.4368   -0.7728    1.7618 H   0  0  0  0  0  0  0  0  0  0  0  0
   -6.8569   -0.2260    1.7063 H   0  0  0  0  0  0  0  0  0  0  0  0
   -7.6956    1.4184    0.0206 H   0  0  0  0  0  0  0  0  0  0  0  0
   -6.0475    2.4488   -1.5478 H   0  0  0  0  0  0  0  0  0  0  0  0
   -3.6092   -2.5095   -0.1784 H   0  0  0  0  0  0  0  0  0  0  0  0
    0.3891   -3.3775   -0.2272 H   0  0  0  0  0  0  0  0  0  0  0  0
  1  2  2  0
  2  3  1  0
  3  4  1  0
  4  5  2  0
  5  6  1  0
  6  7  1  0
  7  8  2  0
  8  9  1  0
  9 10  2  0
 10 11  1  0
 11 12  1  0
 12 13  1  0
 13 14  2  0
 14 15  1  0
 15 16  2  0
 16 17  1  0
 17 18  2  0
 18 19  1  0
 19 20  2  0
 14 21  1  0
 21 22  2  0
 22 23  1  0
 23 24  1  0
 24 25  2  0
 25 26  1  0
 10 27  1  0
 27 28  1  0
 28  1  1  0
 27  3  2  0
  8  4  1  0
 26  9  1  0
 26 12  2  0
 20 15  1  0
 25 21  1  0
  1 29  1  0
  2 30  1  0
  5 31  1  0
  6 32  1  0
  7 33  1  0
 13 34  1  0
 16 35  1  0
 17 36  1  0
 18 37  1  0
 19 38  1  0
 22 39  1  0
 24 40  1  0
M  END
