
     RDKit          3D

 43 50  0  0  0  0  0  0  0  0999 V2000
   -6.2613    0.5569    0.1098 C   0  0  0  0  0  0  0  0  0  0  0  0
   -5.3853    1.0709    1.0337 C   0  0  0  0  0  0  0  0  0  0  0  0
   -4.0673    0.7387    0.6695 C   0  0  0  0  0  0  0  0  0  0  0  0
   -2.9130    1.1174    1.4130 C   0  0  0  0  0  0  0  0  0  0  0  0
   -2.8533    1.8403    2.5675 C   0  0  0  0  0  0  0  0  0  0  0  0
   -1.5128    1.9189    2.8578 N   0  0  0  0  0  0  0  0  0  0  0  0
   -0.7759    1.2518    1.8903 C   0  0  0  0  0  0  0  0  0  0  0  0
   -1.6453    0.7284    0.9524 C   0  0  0  0  0  0  0  0  0  0  0  0
   -1.3525   -0.0201   -0.1990 C   0  0  0  0  0  0  0  0  0  0  0  0
   -0.0546   -0.3962   -0.6354 C   0  0  0  0  0  0  0  0  0  0  0  0
    1.2174   -0.1866   -0.1456 N   0  0  0  0  0  0  0  0  0  0  0  0
    2.1853   -0.7674   -0.9476 C   0  0  0  0  0  0  0  0  0  0  0  0
    1.5310   -1.3801   -2.0007 C   0  0  0  0  0  0  0  0  0  0  0  0
    0.1734   -1.1356   -1.7804 C   0  0  0  0  0  0  0  0  0  0  0  0
   -0.9473   -1.5370   -2.5560 C   0  0  0  0  0  0  0  0  0  0  0  0
   -0.8454   -2.2683   -3.7036 C   0  0  0  0  0  0  0  0  0  0  0  0
   -2.4188   -2.5365   -4.3238 S   0  0  0  0  0  0  0  0  0  0  0  0
   -3.1504   -1.6602   -3.0238 C   0  0  0  0  0  0  0  0  0  0  0  0
   -2.2465   -1.1543   -2.1092 C   0  0  0  0  0  0  0  0  0  0  0  0
   -2.5549   -0.3969   -0.9455 C   0  0  0  0  0  0  0  0  0  0  0  0
   -3.8684   -0.0080   -0.4908 C   0  0  0  0  0  0  0  0  0  0  0  0
   -5.4624   -0.2920   -1.1385 S   0  0  0  0  0  0  0  0  0  0  0  0
    3.5866   -0.6719   -0.6229 C   0  0  0  0  0  0  0  0  0  0  0  0
    4.7952   -1.3954   -1.6216 S   0  0  0  0  0  0  0  0  0  0  0  0
    6.0801   -0.8643   -0.6200 C   0  0  0  0  0  0  0  0  0  0  0  0
    5.6123   -0.1520    0.4524 C   0  0  0  0  0  0  0  0  0  0  0  0
    6.4330    0.3809    1.3994 N   0  0  0  0  0  0  0  0  0  0  0  0
    5.7113    1.0353    2.3486 C   0  0  0  0  0  0  0  0  0  0  0  0
    4.3156    1.1524    2.3620 C   0  0  0  0  0  0  0  0  0  0  0  0
    3.4693    0.6303    1.4289 N   0  0  0  0  0  0  0  0  0  0  0  0
    4.1726   -0.0365    0.4577 C   0  0  0  0  0  0  0  0  0  0  0  0
   -7.3396    0.6373    0.1041 H   0  0  0  0  0  0  0  0  0  0  0  0
   -5.6932    1.6409    1.9001 H   0  0  0  0  0  0  0  0  0  0  0  0
   -3.5980    2.2987    3.2027 H   0  0  0  0  0  0  0  0  0  0  0  0
   -1.1179    2.3933    3.6595 H   0  0  0  0  0  0  0  0  0  0  0  0
    0.2956    1.2377    2.0004 H   0  0  0  0  0  0  0  0  0  0  0  0
    1.4527    0.3234    0.6927 H   0  0  0  0  0  0  0  0  0  0  0  0
    1.9915   -1.9271   -2.8118 H   0  0  0  0  0  0  0  0  0  0  0  0
    0.0268   -2.6555   -4.2104 H   0  0  0  0  0  0  0  0  0  0  0  0
   -4.2236   -1.5982   -3.0579 H   0  0  0  0  0  0  0  0  0  0  0  0
    7.1063   -1.0976   -0.8634 H   0  0  0  0  0  0  0  0  0  0  0  0
    6.3040    1.4874    3.1393 H   0  0  0  0  0  0  0  0  0  0  0  0
    3.8276    1.6970    3.1658 H   0  0  0  0  0  0  0  0  0  0  0  0
  1  2  2  0
  2  3  1  0
  3  4  1  0
  4  5  2  0
  5  6  1  0
  6  7  1  0
  7  8  2  0
  8  9  1  0
  9 10  1  0
 10 11  1  0
 11 12  1  0
 12 13  2  0
 13 14  1  0
 14 15  1  0
 15 16  2  0
 16 17  1  0
 17 18  1  0
 18 19  2  0
 19 20  1  0
 20 21  1  0
 21 22  1  0
 12 23  1  0
 23 24  1  0
 24 25  1  0
 25 26  2  0
 26 27  1  0
 27 28  2  0
 28 29  1  0
 29 30  2  0
 30 31  1  0
 22  1  1  0
 31 23  2  0
 21  3  2  0
 31 26  1  0
  8  4  1  0
 20  9  2  0
 14 10  2  0
 19 15  1  0
  1 32  1  0
  2 33  1  0
  5 34  1  0
  6 35  1  0
  7 36  1  0
 11 37  1  0
 13 38  1  0
 16 39  1  0
 18 40  1  0
 25 41  1  0
 28 42  1  0
 29 43  1  0
M  END
