
     RDKit          3D

 30 35  0  0  0  0  0  0  0  0999 V2000
   -0.0094   -3.5691    0.2867 C   0  0  0  0  0  0  0  0  0  0  0  0
    1.1079   -2.5791    0.1630 C   0  0  0  0  0  0  0  0  0  0  0  0
    0.6010   -1.3416    0.0838 C   0  0  0  0  0  0  0  0  0  0  0  0
    1.2378   -0.0844   -0.0423 C   0  0  0  0  0  0  0  0  0  0  0  0
    2.6069    0.2077   -0.1201 C   0  0  0  0  0  0  0  0  0  0  0  0
    3.7459   -0.5445   -0.1050 O   0  0  0  0  0  0  0  0  0  0  0  0
    4.7613    0.3535   -0.2173 C   0  0  0  0  0  0  0  0  0  0  0  0
    4.3188    1.6501   -0.3038 C   0  0  0  0  0  0  0  0  0  0  0  0
    2.9090    1.5235   -0.2376 C   0  0  0  0  0  0  0  0  0  0  0  0
    1.4717    2.4900   -0.2581 S   0  0  0  0  0  0  0  0  0  0  0  0
    0.4827    1.0823   -0.1059 C   0  0  0  0  0  0  0  0  0  0  0  0
   -1.0002    1.0838   -0.0472 C   0  0  0  0  0  0  0  0  0  0  0  0
   -1.8186    2.2513   -0.1084 C   0  0  0  0  0  0  0  0  0  0  0  0
   -1.4407    3.5370   -0.2264 N   0  0  0  0  0  0  0  0  0  0  0  0
   -2.8083    4.4658   -0.2467 S   0  0  0  0  0  0  0  0  0  0  0  0
   -3.9740    3.2975   -0.1068 N   0  0  0  0  0  0  0  0  0  0  0  0
   -3.3288    2.1233   -0.0383 C   0  0  0  0  0  0  0  0  0  0  0  0
   -3.9585    0.8644    0.0876 C   0  0  0  0  0  0  0  0  0  0  0  0
   -3.1149   -0.2563    0.1440 C   0  0  0  0  0  0  0  0  0  0  0  0
   -1.6990   -0.1713    0.0811 C   0  0  0  0  0  0  0  0  0  0  0  0
   -0.8612   -1.3987    0.1464 C   0  0  0  0  0  0  0  0  0  0  0  0
   -1.2277   -2.6878    0.2643 C   0  0  0  0  0  0  0  0  0  0  0  0
    0.0568   -4.1243    1.2269 H   0  0  0  0  0  0  0  0  0  0  0  0
   -0.0138   -4.2673   -0.5554 H   0  0  0  0  0  0  0  0  0  0  0  0
    2.1559   -2.8384    0.1423 H   0  0  0  0  0  0  0  0  0  0  0  0
    5.7503   -0.0852   -0.2214 H   0  0  0  0  0  0  0  0  0  0  0  0
    4.9123    2.5467   -0.3993 H   0  0  0  0  0  0  0  0  0  0  0  0
   -5.0375    0.7759    0.1375 H   0  0  0  0  0  0  0  0  0  0  0  0
   -3.5940   -1.2298    0.2411 H   0  0  0  0  0  0  0  0  0  0  0  0
   -2.2317   -3.0752    0.3352 H   0  0  0  0  0  0  0  0  0  0  0  0
  1  2  1  0
  2  3  2  0
  3  4  1  0
  4  5  1  0
  5  6  1  0
  6  7  1  0
  7  8  2  0
  8  9  1  0
  9 10  1  0
 10 11  1  0
 11 12  1  0
 12 13  1  0
 13 14  2  0
 14 15  1  0
 15 16  1  0
 16 17  2  0
 17 18  1  0
 18 19  2  0
 19 20  1  0
 20 21  1  0
 21 22  2  0
 22  1  1  0
 21  3  1  0
 11  4  2  0
 20 12  2  0
  9  5  2  0
 17 13  1  0
  1 23  1  0
  1 24  1  0
  2 25  1  0
  7 26  1  0
  8 27  1  0
 18 28  1  0
 19 29  1  0
 22 30  1  0
M  END
