
     RDKit          3D

 32 37  0  0  0  0  0  0  0  0999 V2000
    1.0363    3.4678    0.3653 C   0  0  0  0  0  0  0  0  0  0  0  0
    1.7689    2.1706    0.2239 C   0  0  0  0  0  0  0  0  0  0  0  0
    0.8936    1.1563    0.1196 C   0  0  0  0  0  0  0  0  0  0  0  0
    1.1160   -0.2795   -0.0343 C   0  0  0  0  0  0  0  0  0  0  0  0
    2.3923   -0.8400   -0.0990 C   0  0  0  0  0  0  0  0  0  0  0  0
    3.6091   -0.2203   -0.0378 O   0  0  0  0  0  0  0  0  0  0  0  0
    4.5568   -1.1901   -0.1446 C   0  0  0  0  0  0  0  0  0  0  0  0
    3.9728   -2.4288   -0.2741 C   0  0  0  0  0  0  0  0  0  0  0  0
    2.5789   -2.2069   -0.2451 C   0  0  0  0  0  0  0  0  0  0  0  0
    1.5587   -3.0869   -0.3347 N   0  0  0  0  0  0  0  0  0  0  0  0
    0.3214   -2.5195   -0.2695 C   0  0  0  0  0  0  0  0  0  0  0  0
    0.0056   -1.1589   -0.1236 C   0  0  0  0  0  0  0  0  0  0  0  0
   -1.3883   -0.6067   -0.0593 C   0  0  0  0  0  0  0  0  0  0  0  0
   -2.5796   -1.4036   -0.1401 C   0  0  0  0  0  0  0  0  0  0  0  0
   -2.6700   -2.7384   -0.2831 N   0  0  0  0  0  0  0  0  0  0  0  0
   -4.2721   -3.1443   -0.3204 S   0  0  0  0  0  0  0  0  0  0  0  0
   -4.9646   -1.6518   -0.1575 N   0  0  0  0  0  0  0  0  0  0  0  0
   -3.9574   -0.7706   -0.0669 C   0  0  0  0  0  0  0  0  0  0  0  0
   -4.1265    0.6192    0.0828 C   0  0  0  0  0  0  0  0  0  0  0  0
   -2.9494    1.3722    0.1587 C   0  0  0  0  0  0  0  0  0  0  0  0
   -1.6436    0.8065    0.0929 C   0  0  0  0  0  0  0  0  0  0  0  0
   -0.4616    1.6904    0.1823 C   0  0  0  0  0  0  0  0  0  0  0  0
   -0.3958    3.0264    0.3244 C   0  0  0  0  0  0  0  0  0  0  0  0
    1.2650    4.1441   -0.4634 H   0  0  0  0  0  0  0  0  0  0  0  0
    1.2727    3.9544    1.3160 H   0  0  0  0  0  0  0  0  0  0  0  0
    2.8456    2.0999    0.2117 H   0  0  0  0  0  0  0  0  0  0  0  0
    5.5811   -0.8455   -0.1119 H   0  0  0  0  0  0  0  0  0  0  0  0
    4.4801   -3.3760   -0.3768 H   0  0  0  0  0  0  0  0  0  0  0  0
   -0.4501   -3.2788   -0.3471 H   0  0  0  0  0  0  0  0  0  0  0  0
   -5.1092    1.0721    0.1352 H   0  0  0  0  0  0  0  0  0  0  0  0
   -3.0671    2.4490    0.2745 H   0  0  0  0  0  0  0  0  0  0  0  0
   -1.2197    3.7178    0.4016 H   0  0  0  0  0  0  0  0  0  0  0  0
  1  2  1  0
  2  3  2  0
  3  4  1  0
  4  5  2  0
  5  6  1  0
  6  7  1  0
  7  8  2  0
  8  9  1  0
  9 10  2  0
 10 11  1  0
 11 12  2  0
 12 13  1  0
 13 14  1  0
 14 15  2  0
 15 16  1  0
 16 17  1  0
 17 18  2  0
 18 19  1  0
 19 20  2  0
 20 21  1  0
 21 22  1  0
 22 23  2  0
 23  1  1  0
 22  3  1  0
 12  4  1  0
 21 13  2  0
  9  5  1  0
 18 14  1  0
  1 24  1  0
  1 25  1  0
  2 26  1  0
  7 27  1  0
  8 28  1  0
 11 29  1  0
 19 30  1  0
 20 31  1  0
 23 32  1  0
M  END
