
     RDKit          3D

 33 38  0  0  0  0  0  0  0  0999 V2000
   -3.0723   -2.6382    0.0391 C   0  0  0  0  0  0  0  0  0  0  0  0
   -3.5108   -1.2154   -0.1322 C   0  0  0  0  0  0  0  0  0  0  0  0
   -2.4355   -0.4142   -0.1431 C   0  0  0  0  0  0  0  0  0  0  0  0
   -2.3431    1.0029   -0.2794 C   0  0  0  0  0  0  0  0  0  0  0  0
   -3.4103    1.9292   -0.4414 C   0  0  0  0  0  0  0  0  0  0  0  0
   -2.9442    3.2198   -0.5409 C   0  0  0  0  0  0  0  0  0  0  0  0
   -1.2418    3.2947   -0.4383 S   0  0  0  0  0  0  0  0  0  0  0  0
   -1.0857    1.6048   -0.2585 C   0  0  0  0  0  0  0  0  0  0  0  0
    0.1807    0.8564   -0.1014 C   0  0  0  0  0  0  0  0  0  0  0  0
    1.5015    1.3510   -0.0657 C   0  0  0  0  0  0  0  0  0  0  0  0
    1.9658    2.6469   -0.1658 C   0  0  0  0  0  0  0  0  0  0  0  0
    3.3513    2.6402   -0.0755 N   0  0  0  0  0  0  0  0  0  0  0  0
    3.8128    1.3540    0.0834 C   0  0  0  0  0  0  0  0  0  0  0  0
    2.6852    0.5923    0.0870 C   0  0  0  0  0  0  0  0  0  0  0  0
    2.5703   -0.8087    0.2203 C   0  0  0  0  0  0  0  0  0  0  0  0
    3.5278   -1.8031    0.3820 C   0  0  0  0  0  0  0  0  0  0  0  0
    2.7795   -2.9605    0.4498 C   0  0  0  0  0  0  0  0  0  0  0  0
    1.4420   -2.6988    0.3371 O   0  0  0  0  0  0  0  0  0  0  0  0
    1.2976   -1.3381    0.1911 C   0  0  0  0  0  0  0  0  0  0  0  0
    0.1126   -0.5825    0.0386 C   0  0  0  0  0  0  0  0  0  0  0  0
   -1.2200   -1.2174    0.0162 C   0  0  0  0  0  0  0  0  0  0  0  0
   -1.5798   -2.5087    0.1226 C   0  0  0  0  0  0  0  0  0  0  0  0
   -3.3673   -3.2482   -0.8197 H   0  0  0  0  0  0  0  0  0  0  0  0
   -3.4822   -3.0698    0.9568 H   0  0  0  0  0  0  0  0  0  0  0  0
   -4.5395   -0.9063   -0.2297 H   0  0  0  0  0  0  0  0  0  0  0  0
   -4.4613    1.6737   -0.4838 H   0  0  0  0  0  0  0  0  0  0  0  0
   -3.5221    4.1244   -0.6691 H   0  0  0  0  0  0  0  0  0  0  0  0
    1.4743    3.5990   -0.2932 H   0  0  0  0  0  0  0  0  0  0  0  0
    3.9332    3.4670   -0.1209 H   0  0  0  0  0  0  0  0  0  0  0  0
    4.8670    1.1330    0.1738 H   0  0  0  0  0  0  0  0  0  0  0  0
    4.6025   -1.7215    0.4433 H   0  0  0  0  0  0  0  0  0  0  0  0
    3.0322   -4.0047    0.5710 H   0  0  0  0  0  0  0  0  0  0  0  0
   -0.9204   -3.3531    0.2500 H   0  0  0  0  0  0  0  0  0  0  0  0
  1  2  1  0
  2  3  2  0
  3  4  1  0
  4  5  1  0
  5  6  2  0
  6  7  1  0
  7  8  1  0
  8  9  1  0
  9 10  1  0
 10 11  2  0
 11 12  1  0
 12 13  1  0
 13 14  2  0
 14 15  1  0
 15 16  1  0
 16 17  2  0
 17 18  1  0
 18 19  1  0
 19 20  1  0
 20 21  1  0
 21 22  2  0
 22  1  1  0
 21  3  1  0
  8  4  2  0
 20  9  2  0
 14 10  1  0
 19 15  2  0
  1 23  1  0
  1 24  1  0
  2 25  1  0
  5 26  1  0
  6 27  1  0
 11 28  1  0
 12 29  1  0
 13 30  1  0
 16 31  1  0
 17 32  1  0
 22 33  1  0
M  END
