
     RDKit          3D

 44 50  0  0  0  0  0  0  0  0999 V2000
   -0.0400    4.2095    0.2960 C   0  0  0  0  0  0  0  0  0  0  0  0
    1.3185    3.8140   -0.1983 C   0  0  0  0  0  0  0  0  0  0  0  0
    1.3741    2.4789   -0.3030 C   0  0  0  0  0  0  0  0  0  0  0  0
    2.4867    1.6297   -0.5917 C   0  0  0  0  0  0  0  0  0  0  0  0
    3.7474    1.9134   -1.2320 C   0  0  0  0  0  0  0  0  0  0  0  0
    4.4232    0.7706   -1.4011 C   0  0  0  0  0  0  0  0  0  0  0  0
    3.6389   -0.3716   -0.8158 C   0  0  0  0  0  0  0  0  0  0  0  0
    2.3878    0.3069   -0.3164 C   0  0  0  0  0  0  0  0  0  0  0  0
    1.1236   -0.3414    0.1955 C   0  0  0  0  0  0  0  0  0  0  0  0
    1.0434   -1.6685    0.7044 C   0  0  0  0  0  0  0  0  0  0  0  0
    2.1866   -2.3834    1.1465 C   0  0  0  0  0  0  0  0  0  0  0  0
    2.1367   -3.6858    1.6389 C   0  0  0  0  0  0  0  0  0  0  0  0
    0.9202   -4.3209    1.7302 C   0  0  0  0  0  0  0  0  0  0  0  0
   -0.2345   -3.6361    1.3536 C   0  0  0  0  0  0  0  0  0  0  0  0
   -0.2310   -2.3036    0.8512 C   0  0  0  0  0  0  0  0  0  0  0  0
   -1.4459   -1.6227    0.4826 C   0  0  0  0  0  0  0  0  0  0  0  0
   -2.7639   -2.2748    0.5524 C   0  0  0  0  0  0  0  0  0  0  0  0
   -4.0155   -1.7440    0.1646 C   0  0  0  0  0  0  0  0  0  0  0  0
   -3.8329   -0.4878   -0.3628 C   0  0  0  0  0  0  0  0  0  0  0  0
   -4.8234    0.2560   -0.9500 C   0  0  0  0  0  0  0  0  0  0  0  0
   -4.2194    1.3841   -1.4501 N   0  0  0  0  0  0  0  0  0  0  0  0
   -2.8659    1.3454   -1.1919 C   0  0  0  0  0  0  0  0  0  0  0  0
   -2.6012    0.2232   -0.4380 C   0  0  0  0  0  0  0  0  0  0  0  0
   -1.3368   -0.2569    0.0396 C   0  0  0  0  0  0  0  0  0  0  0  0
   -0.0804    0.4151    0.0622 C   0  0  0  0  0  0  0  0  0  0  0  0
    0.0880    1.8921    0.0394 C   0  0  0  0  0  0  0  0  0  0  0  0
   -0.7208    2.8814    0.4592 C   0  0  0  0  0  0  0  0  0  0  0  0
   -0.5629    4.8370   -0.4314 H   0  0  0  0  0  0  0  0  0  0  0  0
    0.0298    4.7332    1.2539 H   0  0  0  0  0  0  0  0  0  0  0  0
    2.1343    4.5007   -0.3608 H   0  0  0  0  0  0  0  0  0  0  0  0
    4.0599    2.8945   -1.5536 H   0  0  0  0  0  0  0  0  0  0  0  0
    5.3899    0.6730   -1.8710 H   0  0  0  0  0  0  0  0  0  0  0  0
    3.4161   -1.1231   -1.5791 H   0  0  0  0  0  0  0  0  0  0  0  0
    4.2464   -0.8049   -0.0201 H   0  0  0  0  0  0  0  0  0  0  0  0
    3.1575   -1.9078    1.1858 H   0  0  0  0  0  0  0  0  0  0  0  0
    3.0456   -4.1833    1.9653 H   0  0  0  0  0  0  0  0  0  0  0  0
    0.8545   -5.3353    2.1136 H   0  0  0  0  0  0  0  0  0  0  0  0
   -1.1587   -4.1910    1.4784 H   0  0  0  0  0  0  0  0  0  0  0  0
   -2.8276   -3.2957    0.9248 H   0  0  0  0  0  0  0  0  0  0  0  0
   -4.9446   -2.2909    0.2214 H   0  0  0  0  0  0  0  0  0  0  0  0
   -5.8802    0.0794   -1.0965 H   0  0  0  0  0  0  0  0  0  0  0  0
   -4.6864    2.1087   -1.9797 H   0  0  0  0  0  0  0  0  0  0  0  0
   -2.2294    2.1195   -1.5957 H   0  0  0  0  0  0  0  0  0  0  0  0
   -1.7078    2.7633    0.8796 H   0  0  0  0  0  0  0  0  0  0  0  0
  1  2  1  0
  2  3  2  0
  3  4  1  0
  4  5  1  0
  5  6  2  0
  6  7  1  0
  7  8  1  0
  8  9  1  0
  9 10  2  0
 10 11  1  0
 11 12  2  0
 12 13  1  0
 13 14  2  0
 14 15  1  0
 15 16  2  0
 16 17  1  0
 17 18  2  0
 18 19  1  0
 19 20  2  0
 20 21  1  0
 21 22  1  0
 22 23  2  0
 23 24  1  0
 24 25  2  0
 25 26  1  0
 26 27  2  0
 27  1  1  0
 26  3  1  0
  8  4  2  0
 25  9  1  0
 15 10  1  0
 24 16  1  0
 23 19  1  0
  1 28  1  0
  1 29  1  0
  2 30  1  0
  5 31  1  0
  6 32  1  0
  7 33  1  0
  7 34  1  0
 11 35  1  0
 12 36  1  0
 13 37  1  0
 14 38  1  0
 17 39  1  0
 18 40  1  0
 20 41  1  0
 21 42  1  0
 22 43  1  0
 27 44  1  0
M  END
