
     RDKit          3D

 40 46  0  0  0  0  0  0  0  0999 V2000
   -1.9741   -3.3848   -1.3651 C   0  0  0  0  0  0  0  0  0  0  0  0
   -2.9491   -2.4467   -0.7249 C   0  0  0  0  0  0  0  0  0  0  0  0
   -2.2867   -1.3825   -0.2439 C   0  0  0  0  0  0  0  0  0  0  0  0
   -2.7909   -0.1598    0.3608 C   0  0  0  0  0  0  0  0  0  0  0  0
   -4.1174    0.0081    0.7703 C   0  0  0  0  0  0  0  0  0  0  0  0
   -4.5040    1.2006    1.3671 C   0  0  0  0  0  0  0  0  0  0  0  0
   -3.5456    2.1799    1.5376 C   0  0  0  0  0  0  0  0  0  0  0  0
   -2.2577    2.0490    1.1518 N   0  0  0  0  0  0  0  0  0  0  0  0
   -1.8750    0.8919    0.5478 C   0  0  0  0  0  0  0  0  0  0  0  0
   -0.4007    0.7580    0.1778 C   0  0  0  0  0  0  0  0  0  0  0  0
    0.5173    1.9168    0.0374 C   0  0  0  0  0  0  0  0  0  0  0  0
    0.1512    3.2179    0.0139 C   0  0  0  0  0  0  0  0  0  0  0  0
    1.5622    4.3712   -0.3257 Si  0  0  0  0  0  4  0  0  0  0  0  0
    2.6550    2.8675   -0.4635 C   0  0  0  0  0  0  0  0  0  0  0  0
    1.9634    1.7282   -0.2446 C   0  0  0  0  0  0  0  0  0  0  0  0
    2.5360    0.3666   -0.2221 C   0  0  0  0  0  0  0  0  0  0  0  0
    3.9467    0.1640   -0.2482 C   0  0  0  0  0  0  0  0  0  0  0  0
    4.5596   -1.0797   -0.0457 C   0  0  0  0  0  0  0  0  0  0  0  0
    3.6908   -2.1436    0.2655 C   0  0  0  0  0  0  0  0  0  0  0  0
    4.0888   -3.3875    0.5733 N   0  0  0  0  0  0  0  0  0  0  0  0
    2.7185   -4.2397    0.9399 S   0  0  0  0  0  0  0  0  0  0  0  0
    1.5664   -3.0815    0.6947 N   0  0  0  0  0  0  0  0  0  0  0  0
    2.1861   -1.9579    0.2857 C   0  0  0  0  0  0  0  0  0  0  0  0
    1.5982   -0.6954   -0.0575 C   0  0  0  0  0  0  0  0  0  0  0  0
    0.1086   -0.4905   -0.0936 C   0  0  0  0  0  0  0  0  0  0  0  0
   -0.8583   -1.5299   -0.4762 C   0  0  0  0  0  0  0  0  0  0  0  0
   -0.6746   -2.6616   -1.1804 C   0  0  0  0  0  0  0  0  0  0  0  0
   -1.9640   -4.3558   -0.8618 H   0  0  0  0  0  0  0  0  0  0  0  0
   -2.1998   -3.5205   -2.4268 H   0  0  0  0  0  0  0  0  0  0  0  0
   -4.0161   -2.6030   -0.7187 H   0  0  0  0  0  0  0  0  0  0  0  0
   -4.8479   -0.7845    0.6417 H   0  0  0  0  0  0  0  0  0  0  0  0
   -5.5238    1.3573    1.6993 H   0  0  0  0  0  0  0  0  0  0  0  0
   -3.7913    3.1278    2.0079 H   0  0  0  0  0  0  0  0  0  0  0  0
   -0.8392    3.6258    0.1271 H   0  0  0  0  0  0  0  0  0  0  0  0
    1.4343    5.0848   -1.6195 H   0  0  0  0  0  0  0  0  0  0  0  0
    1.9251    5.2187    0.8358 H   0  0  0  0  0  0  0  0  0  0  0  0
    3.7024    2.9918   -0.6791 H   0  0  0  0  0  0  0  0  0  0  0  0
    4.6127    1.0121   -0.3996 H   0  0  0  0  0  0  0  0  0  0  0  0
    5.6353   -1.2054   -0.0582 H   0  0  0  0  0  0  0  0  0  0  0  0
    0.2579   -3.0275   -1.5805 H   0  0  0  0  0  0  0  0  0  0  0  0
  1  2  1  0
  2  3  2  0
  3  4  1  0
  4  5  2  0
  5  6  1  0
  6  7  2  0
  7  8  1  0
  8  9  2  0
  9 10  1  0
 10 11  1  0
 11 12  2  0
 12 13  1  0
 13 14  1  0
 14 15  2  0
 15 16  1  0
 16 17  1  0
 17 18  2  0
 18 19  1  0
 19 20  2  0
 20 21  1  0
 21 22  1  0
 22 23  2  0
 23 24  1  0
 24 25  1  0
 25 26  1  0
 26 27  2  0
 27  1  1  0
 26  3  1  0
  9  4  1  0
 25 10  2  0
 15 11  1  0
 24 16  2  0
 23 19  1  0
  1 28  1  0
  1 29  1  0
  2 30  1  0
  5 31  1  0
  6 32  1  0
  7 33  1  0
 12 34  1  0
 13 35  1  0
 13 36  1  0
 14 37  1  0
 17 38  1  0
 18 39  1  0
 27 40  1  0
M  END
