
     RDKit          3D

 36 42  0  0  0  0  0  0  0  0999 V2000
    4.6012    0.1480   -0.2105 C   0  0  0  0  0  0  0  0  0  0  0  0
    4.2419   -1.1590    0.0362 C   0  0  0  0  0  0  0  0  0  0  0  0
    2.8543   -1.1199    0.1253 C   0  0  0  0  0  0  0  0  0  0  0  0
    1.9354   -2.1496    0.3835 C   0  0  0  0  0  0  0  0  0  0  0  0
    2.1834   -3.4526    0.6706 C   0  0  0  0  0  0  0  0  0  0  0  0
    0.9800   -4.0321    0.9535 O   0  0  0  0  0  0  0  0  0  0  0  0
    0.0186   -3.0592    0.8188 C   0  0  0  0  0  0  0  0  0  0  0  0
    0.5567   -1.8591    0.3973 C   0  0  0  0  0  0  0  0  0  0  0  0
   -0.1089   -0.6075    0.1711 C   0  0  0  0  0  0  0  0  0  0  0  0
    0.9290    0.4264    0.0559 C   0  0  0  0  0  0  0  0  0  0  0  0
    0.3649    1.7152    0.0424 C   0  0  0  0  0  0  0  0  0  0  0  0
    1.0211    2.9272    0.0687 C   0  0  0  0  0  0  0  0  0  0  0  0
    0.0758    3.9275    0.0735 N   0  0  0  0  0  0  0  0  0  0  0  0
   -1.1813    3.3795    0.0778 C   0  0  0  0  0  0  0  0  0  0  0  0
   -1.0390    2.0093    0.0763 C   0  0  0  0  0  0  0  0  0  0  0  0
   -2.0944    1.0702    0.0831 C   0  0  0  0  0  0  0  0  0  0  0  0
   -3.4731    1.4688    0.0750 C   0  0  0  0  0  0  0  0  0  0  0  0
   -4.5251    0.5597    0.0071 C   0  0  0  0  0  0  0  0  0  0  0  0
   -4.1449   -0.7885   -0.1105 C   0  0  0  0  0  0  0  0  0  0  0  0
   -5.0157   -1.7994   -0.2568 N   0  0  0  0  0  0  0  0  0  0  0  0
   -4.1158   -3.1721   -0.4410 S   0  0  0  0  0  0  0  0  0  0  0  0
   -2.5932   -2.5493   -0.3178 N   0  0  0  0  0  0  0  0  0  0  0  0
   -2.6873   -1.2273   -0.0929 C   0  0  0  0  0  0  0  0  0  0  0  0
   -1.5859   -0.2908    0.0798 C   0  0  0  0  0  0  0  0  0  0  0  0
    2.3305    0.1505   -0.0208 C   0  0  0  0  0  0  0  0  0  0  0  0
    3.4564    0.9188   -0.2501 N   0  0  0  0  0  0  0  0  0  0  0  0
    5.5698    0.6033   -0.3683 H   0  0  0  0  0  0  0  0  0  0  0  0
    4.9099   -2.0044    0.1259 H   0  0  0  0  0  0  0  0  0  0  0  0
    3.0543   -4.0844    0.7597 H   0  0  0  0  0  0  0  0  0  0  0  0
   -0.9646   -3.4018    1.0967 H   0  0  0  0  0  0  0  0  0  0  0  0
    2.0591    3.2109    0.1116 H   0  0  0  0  0  0  0  0  0  0  0  0
    0.2781    4.9193    0.0926 H   0  0  0  0  0  0  0  0  0  0  0  0
   -2.0465    4.0274    0.0901 H   0  0  0  0  0  0  0  0  0  0  0  0
   -3.7326    2.5254    0.1114 H   0  0  0  0  0  0  0  0  0  0  0  0
   -5.5632    0.8668   -0.0054 H   0  0  0  0  0  0  0  0  0  0  0  0
    3.4511    1.9030   -0.4633 H   0  0  0  0  0  0  0  0  0  0  0  0
  1  2  2  0
  2  3  1  0
  3  4  1  0
  4  5  2  0
  5  6  1  0
  6  7  1  0
  7  8  2  0
  8  9  1  0
  9 10  2  0
 10 11  1  0
 11 12  2  0
 12 13  1  0
 13 14  1  0
 14 15  2  0
 15 16  1  0
 16 17  1  0
 17 18  2  0
 18 19  1  0
 19 20  2  0
 20 21  1  0
 21 22  1  0
 22 23  2  0
 23 24  1  0
 10 25  1  0
 25 26  1  0
 26  1  1  0
 25  3  2  0
  8  4  1  0
 24  9  1  0
 15 11  1  0
 24 16  2  0
 23 19  1  0
  1 27  1  0
  2 28  1  0
  5 29  1  0
  7 30  1  0
 12 31  1  0
 13 32  1  0
 14 33  1  0
 17 34  1  0
 18 35  1  0
 26 36  1  0
M  END
