
     RDKit          3D

 50 57  0  0  0  0  0  0  0  0999 V2000
    6.8525   -1.1182    0.2782 C   0  0  0  0  0  0  0  0  0  0  0  0
    6.6984    0.0897    0.9220 C   0  0  0  0  0  0  0  0  0  0  0  0
    5.3406    0.3683    0.8046 C   0  0  0  0  0  0  0  0  0  0  0  0
    4.6050    1.4764    1.2589 C   0  0  0  0  0  0  0  0  0  0  0  0
    5.0552    2.5782    1.9109 C   0  0  0  0  0  0  0  0  0  0  0  0
    3.9819    3.4036    2.0844 O   0  0  0  0  0  0  0  0  0  0  0  0
    2.8910    2.7773    1.5309 C   0  0  0  0  0  0  0  0  0  0  0  0
    3.2157    1.5324    1.0258 C   0  0  0  0  0  0  0  0  0  0  0  0
    2.3715    0.5768    0.3651 C   0  0  0  0  0  0  0  0  0  0  0  0
    0.8762    0.6077    0.1698 C   0  0  0  0  0  0  0  0  0  0  0  0
   -0.0070    1.5498    0.7485 C   0  0  0  0  0  0  0  0  0  0  0  0
   -1.3961    1.5615    0.5224 C   0  0  0  0  0  0  0  0  0  0  0  0
   -2.0041    0.6082   -0.2925 C   0  0  0  0  0  0  0  0  0  0  0  0
   -1.1937   -0.3704   -0.8637 C   0  0  0  0  0  0  0  0  0  0  0  0
    0.2054   -0.3770   -0.6241 C   0  0  0  0  0  0  0  0  0  0  0  0
    1.0851   -1.3570   -1.1231 C   0  0  0  0  0  0  0  0  0  0  0  0
    0.7554   -2.4334   -1.9088 C   0  0  0  0  0  0  0  0  0  0  0  0
    1.8716   -3.1596   -2.1893 O   0  0  0  0  0  0  0  0  0  0  0  0
    2.9209   -2.5409   -1.5739 C   0  0  0  0  0  0  0  0  0  0  0  0
    2.4923   -1.4277   -0.8903 C   0  0  0  0  0  0  0  0  0  0  0  0
    3.2366   -0.5069   -0.1379 C   0  0  0  0  0  0  0  0  0  0  0  0
    4.6414   -0.5986    0.1065 C   0  0  0  0  0  0  0  0  0  0  0  0
    5.6226   -1.5224   -0.2023 N   0  0  0  0  0  0  0  0  0  0  0  0
   -3.4550    0.6258   -0.5295 C   0  0  0  0  0  0  0  0  0  0  0  0
   -3.9440    1.4148   -1.5870 C   0  0  0  0  0  0  0  0  0  0  0  0
   -5.3049    1.4720   -1.8684 C   0  0  0  0  0  0  0  0  0  0  0  0
   -6.2019    0.7400   -1.0961 C   0  0  0  0  0  0  0  0  0  0  0  0
   -5.7538   -0.0575   -0.0328 C   0  0  0  0  0  0  0  0  0  0  0  0
   -6.6748   -0.7888    0.7361 C   0  0  0  0  0  0  0  0  0  0  0  0
   -6.2515   -1.5862    1.7982 C   0  0  0  0  0  0  0  0  0  0  0  0
   -4.9001   -1.6627    2.1066 C   0  0  0  0  0  0  0  0  0  0  0  0
   -3.9721   -0.9419    1.3516 C   0  0  0  0  0  0  0  0  0  0  0  0
   -4.3688   -0.1246    0.2663 C   0  0  0  0  0  0  0  0  0  0  0  0
    7.7281   -1.7333    0.1174 H   0  0  0  0  0  0  0  0  0  0  0  0
    7.4769    0.6658    1.4031 H   0  0  0  0  0  0  0  0  0  0  0  0
    6.0043    2.9387    2.2789 H   0  0  0  0  0  0  0  0  0  0  0  0
    2.0028    3.3854    1.5761 H   0  0  0  0  0  0  0  0  0  0  0  0
    0.3511    2.2972    1.4426 H   0  0  0  0  0  0  0  0  0  0  0  0
   -2.0028    2.3242    1.0087 H   0  0  0  0  0  0  0  0  0  0  0  0
   -1.6521   -1.1354   -1.4857 H   0  0  0  0  0  0  0  0  0  0  0  0
   -0.1603   -2.8143   -2.3386 H   0  0  0  0  0  0  0  0  0  0  0  0
    3.8656   -3.0287   -1.7465 H   0  0  0  0  0  0  0  0  0  0  0  0
    5.4762   -2.3900   -0.6928 H   0  0  0  0  0  0  0  0  0  0  0  0
   -3.2524    1.9907   -2.1997 H   0  0  0  0  0  0  0  0  0  0  0  0
   -5.6663    2.0859   -2.6891 H   0  0  0  0  0  0  0  0  0  0  0  0
   -7.2626    0.7974   -1.3319 H   0  0  0  0  0  0  0  0  0  0  0  0
   -7.7384   -0.7416    0.5115 H   0  0  0  0  0  0  0  0  0  0  0  0
   -6.9774   -2.1449    2.3828 H   0  0  0  0  0  0  0  0  0  0  0  0
   -4.5624   -2.2811    2.9341 H   0  0  0  0  0  0  0  0  0  0  0  0
   -2.9218   -1.0248    1.6243 H   0  0  0  0  0  0  0  0  0  0  0  0
  1  2  2  0
  2  3  1  0
  3  4  1  0
  4  5  2  0
  5  6  1  0
  6  7  1  0
  7  8  2  0
  8  9  1  0
  9 10  1  0
 10 11  2  0
 11 12  1  0
 12 13  2  0
 13 14  1  0
 14 15  2  0
 15 16  1  0
 16 17  2  0
 17 18  1  0
 18 19  1  0
 19 20  2  0
 20 21  1  0
 21 22  1  0
 22 23  1  0
 13 24  1  0
 24 25  2  0
 25 26  1  0
 26 27  2  0
 27 28  1  0
 28 29  2  0
 29 30  1  0
 30 31  2  0
 31 32  1  0
 32 33  2  0
 23  1  1  0
 33 24  1  0
 22  3  2  0
 33 28  1  0
  8  4  1  0
 21  9  2  0
 15 10  1  0
 20 16  1  0
  1 34  1  0
  2 35  1  0
  5 36  1  0
  7 37  1  0
 11 38  1  0
 12 39  1  0
 14 40  1  0
 17 41  1  0
 19 42  1  0
 23 43  1  0
 25 44  1  0
 26 45  1  0
 27 46  1  0
 29 47  1  0
 30 48  1  0
 31 49  1  0
 32 50  1  0
M  END
