
     RDKit          3D

 33 38  0  0  0  0  0  0  0  0999 V2000
   -5.4267   -1.6807    1.0164 C   0  0  0  0  0  0  0  0  0  0  0  0
   -5.5228   -0.4247    0.4406 C   0  0  0  0  0  0  0  0  0  0  0  0
   -4.1989   -0.0489    0.2590 C   0  0  0  0  0  0  0  0  0  0  0  0
   -3.5714    1.0959   -0.2707 C   0  0  0  0  0  0  0  0  0  0  0  0
   -4.1614    2.2138   -0.7798 C   0  0  0  0  0  0  0  0  0  0  0  0
   -3.1669    3.0745   -1.1817 O   0  0  0  0  0  0  0  0  0  0  0  0
   -1.9549    2.4740   -0.9144 C   0  0  0  0  0  0  0  0  0  0  0  0
   -2.1818    1.2494   -0.3507 C   0  0  0  0  0  0  0  0  0  0  0  0
   -1.2481    0.2505    0.1015 C   0  0  0  0  0  0  0  0  0  0  0  0
    0.1712    0.2581    0.0883 C   0  0  0  0  0  0  0  0  0  0  0  0
    1.1382    1.1758   -0.3395 C   0  0  0  0  0  0  0  0  0  0  0  0
    2.4618    0.9133   -0.2281 N   0  0  0  0  0  0  0  0  0  0  0  0
    2.9007   -0.2563    0.3058 C   0  0  0  0  0  0  0  0  0  0  0  0
    2.0059   -1.2223    0.7553 C   0  0  0  0  0  0  0  0  0  0  0  0
    0.6351   -0.9476    0.6386 C   0  0  0  0  0  0  0  0  0  0  0  0
   -0.6620   -1.9947    1.1280 S   0  0  0  0  0  0  0  0  0  0  0  0
   -1.8200   -0.8836    0.6259 C   0  0  0  0  0  0  0  0  0  0  0  0
   -3.3619   -1.0354    0.7062 C   0  0  0  0  0  0  0  0  0  0  0  0
   -4.1196   -2.0617    1.1824 O   0  0  0  0  0  0  0  0  0  0  0  0
    4.3729   -0.4581    0.3884 C   0  0  0  0  0  0  0  0  0  0  0  0
    5.1737    0.5164   -0.0643 N   0  0  0  0  0  0  0  0  0  0  0  0
    6.4748    0.2703    0.0398 C   0  0  0  0  0  0  0  0  0  0  0  0
    7.0252   -0.8315    0.5417 N   0  0  0  0  0  0  0  0  0  0  0  0
    6.1405   -1.7308    0.9605 C   0  0  0  0  0  0  0  0  0  0  0  0
    4.8158   -1.6111    0.9146 N   0  0  0  0  0  0  0  0  0  0  0  0
   -6.1578   -2.4033    1.3531 H   0  0  0  0  0  0  0  0  0  0  0  0
   -6.4331    0.1056    0.2034 H   0  0  0  0  0  0  0  0  0  0  0  0
   -5.1733    2.5608   -0.9322 H   0  0  0  0  0  0  0  0  0  0  0  0
   -1.0943    3.0638   -1.1910 H   0  0  0  0  0  0  0  0  0  0  0  0
    0.9033    2.1369   -0.7791 H   0  0  0  0  0  0  0  0  0  0  0  0
    2.3494   -2.1587    1.1828 H   0  0  0  0  0  0  0  0  0  0  0  0
    7.1498    1.0402   -0.3182 H   0  0  0  0  0  0  0  0  0  0  0  0
    6.5365   -2.6498    1.3796 H   0  0  0  0  0  0  0  0  0  0  0  0
  1  2  2  0
  2  3  1  0
  3  4  1  0
  4  5  2  0
  5  6  1  0
  6  7  1  0
  7  8  2  0
  8  9  1  0
  9 10  1  0
 10 11  2  0
 11 12  1  0
 12 13  2  0
 13 14  1  0
 14 15  2  0
 15 16  1  0
 16 17  1  0
 17 18  1  0
 18 19  1  0
 13 20  1  0
 20 21  2  0
 21 22  1  0
 22 23  2  0
 23 24  1  0
 24 25  2  0
 19  1  1  0
 25 20  1  0
 18  3  2  0
  8  4  1  0
 17  9  2  0
 15 10  1  0
  1 26  1  0
  2 27  1  0
  5 28  1  0
  7 29  1  0
 11 30  1  0
 14 31  1  0
 22 32  1  0
 24 33  1  0
M  END
