
     RDKit          3D

 42 48  0  0  0  0  0  0  0  0999 V2000
   -6.2956   -1.2967   -1.0222 C   0  0  0  0  0  0  0  0  0  0  0  0
   -6.2541    0.0158   -0.6074 C   0  0  0  0  0  0  0  0  0  0  0  0
   -4.9230    0.3849   -0.3559 C   0  0  0  0  0  0  0  0  0  0  0  0
   -4.4869    1.6645    0.0889 C   0  0  0  0  0  0  0  0  0  0  0  0
   -5.1884    2.7944    0.3706 C   0  0  0  0  0  0  0  0  0  0  0  0
   -4.2860    3.7510    0.7620 O   0  0  0  0  0  0  0  0  0  0  0  0
   -3.0361    3.1826    0.7120 C   0  0  0  0  0  0  0  0  0  0  0  0
   -3.1180    1.8729    0.2940 C   0  0  0  0  0  0  0  0  0  0  0  0
   -2.0598    0.9594    0.1164 C   0  0  0  0  0  0  0  0  0  0  0  0
   -0.6799    1.2094    0.3357 C   0  0  0  0  0  0  0  0  0  0  0  0
    0.2812    0.2124    0.1221 C   0  0  0  0  0  0  0  0  0  0  0  0
    1.6875    0.4836    0.3506 C   0  0  0  0  0  0  0  0  0  0  0  0
    2.7844   -0.4265    0.1781 C   0  0  0  0  0  0  0  0  0  0  0  0
    4.2046   -0.1067    0.4233 C   0  0  0  0  0  0  0  0  0  0  0  0
    4.6429    1.1468    0.8607 C   0  0  0  0  0  0  0  0  0  0  0  0
    6.0037    1.3788    1.0723 C   0  0  0  0  0  0  0  0  0  0  0  0
    6.9118    0.3582    0.8455 C   0  0  0  0  0  0  0  0  0  0  0  0
    6.4158   -0.8548    0.4150 C   0  0  0  0  0  0  0  0  0  0  0  0
    5.1023   -1.0990    0.2043 N   0  0  0  0  0  0  0  0  0  0  0  0
    2.2691   -1.6598   -0.2602 C   0  0  0  0  0  0  0  0  0  0  0  0
    2.9413   -2.8225   -0.5551 C   0  0  0  0  0  0  0  0  0  0  0  0
    2.0673   -3.7956   -0.9488 O   0  0  0  0  0  0  0  0  0  0  0  0
    0.8153   -3.2586   -0.9089 C   0  0  0  0  0  0  0  0  0  0  0  0
    0.8844   -1.9534   -0.4936 C   0  0  0  0  0  0  0  0  0  0  0  0
   -0.1920   -1.0575   -0.3235 C   0  0  0  0  0  0  0  0  0  0  0  0
   -1.5677   -1.3219   -0.5468 C   0  0  0  0  0  0  0  0  0  0  0  0
   -2.5249   -0.3161   -0.3300 C   0  0  0  0  0  0  0  0  0  0  0  0
   -3.9354   -0.5732   -0.5546 C   0  0  0  0  0  0  0  0  0  0  0  0
   -4.7410   -2.0209   -1.0898 S   0  0  0  0  0  0  0  0  0  0  0  0
   -7.1671   -1.8771   -1.2928 H   0  0  0  0  0  0  0  0  0  0  0  0
   -7.1323    0.6394   -0.5021 H   0  0  0  0  0  0  0  0  0  0  0  0
   -6.2253    3.0966    0.3591 H   0  0  0  0  0  0  0  0  0  0  0  0
   -2.2285    3.8403    1.0003 H   0  0  0  0  0  0  0  0  0  0  0  0
   -0.3666    2.1937    0.6755 H   0  0  0  0  0  0  0  0  0  0  0  0
    1.9170    1.4943    0.6902 H   0  0  0  0  0  0  0  0  0  0  0  0
    3.9542    1.9621    1.0457 H   0  0  0  0  0  0  0  0  0  0  0  0
    6.3458    2.3524    1.4121 H   0  0  0  0  0  0  0  0  0  0  0  0
    7.9747    0.5030    0.9994 H   0  0  0  0  0  0  0  0  0  0  0  0
    7.0776   -1.6938    0.2200 H   0  0  0  0  0  0  0  0  0  0  0  0
    3.9781   -3.1266   -0.5442 H   0  0  0  0  0  0  0  0  0  0  0  0
    0.0178   -3.9271   -1.1995 H   0  0  0  0  0  0  0  0  0  0  0  0
   -1.8681   -2.3088   -0.8862 H   0  0  0  0  0  0  0  0  0  0  0  0
  1  2  2  0
  2  3  1  0
  3  4  1  0
  4  5  2  0
  5  6  1  0
  6  7  1  0
  7  8  2  0
  8  9  1  0
  9 10  2  0
 10 11  1  0
 11 12  1  0
 12 13  2  0
 13 14  1  0
 14 15  2  0
 15 16  1  0
 16 17  2  0
 17 18  1  0
 18 19  2  0
 13 20  1  0
 20 21  2  0
 21 22  1  0
 22 23  1  0
 23 24  2  0
 24 25  1  0
 25 26  1  0
 26 27  2  0
 27 28  1  0
 28 29  1  0
 29  1  1  0
 28  3  2  0
  8  4  1  0
 27  9  1  0
 25 11  2  0
 19 14  1  0
 24 20  1  0
  1 30  1  0
  2 31  1  0
  5 32  1  0
  7 33  1  0
 10 34  1  0
 12 35  1  0
 15 36  1  0
 16 37  1  0
 17 38  1  0
 18 39  1  0
 21 40  1  0
 23 41  1  0
 26 42  1  0
M  END
