
     RDKit          3D

 44 51  0  0  0  0  0  0  0  0999 V2000
   -6.5172    0.5117    0.0428 C   0  0  0  0  0  0  0  0  0  0  0  0
   -6.2836   -0.8408    0.1870 C   0  0  0  0  0  0  0  0  0  0  0  0
   -4.8946   -0.9369    0.1676 C   0  0  0  0  0  0  0  0  0  0  0  0
   -4.0173   -2.0342    0.3137 C   0  0  0  0  0  0  0  0  0  0  0  0
   -4.4458   -3.3085    0.5437 C   0  0  0  0  0  0  0  0  0  0  0  0
   -3.0744   -4.3064    0.7859 S   0  0  0  0  0  0  0  0  0  0  0  0
   -1.9875   -2.9748    0.5880 C   0  0  0  0  0  0  0  0  0  0  0  0
   -2.6090   -1.7879    0.2491 C   0  0  0  0  0  0  0  0  0  0  0  0
   -1.9265   -0.5309    0.0075 C   0  0  0  0  0  0  0  0  0  0  0  0
   -0.4522   -0.2453   -0.1761 C   0  0  0  0  0  0  0  0  0  0  0  0
    0.5506   -1.2257   -0.3502 C   0  0  0  0  0  0  0  0  0  0  0  0
    1.9216   -0.9293   -0.4797 C   0  0  0  0  0  0  0  0  0  0  0  0
    2.3886    0.3847   -0.4741 C   0  0  0  0  0  0  0  0  0  0  0  0
    1.4428    1.4023   -0.3624 C   0  0  0  0  0  0  0  0  0  0  0  0
    0.0617    1.0939   -0.2418 C   0  0  0  0  0  0  0  0  0  0  0  0
   -0.9601    2.0636   -0.2070 C   0  0  0  0  0  0  0  0  0  0  0  0
   -0.8248    3.4283   -0.2772 C   0  0  0  0  0  0  0  0  0  0  0  0
   -2.0538    4.0196   -0.2442 O   0  0  0  0  0  0  0  0  0  0  0  0
   -2.9804    3.0211   -0.1564 C   0  0  0  0  0  0  0  0  0  0  0  0
   -2.3547    1.7985   -0.1307 C   0  0  0  0  0  0  0  0  0  0  0  0
   -2.9319    0.5306   -0.0339 C   0  0  0  0  0  0  0  0  0  0  0  0
   -4.3198    0.3004    0.0225 C   0  0  0  0  0  0  0  0  0  0  0  0
   -5.3462    1.2102   -0.0526 O   0  0  0  0  0  0  0  0  0  0  0  0
    3.8264    0.6662   -0.6034 C   0  0  0  0  0  0  0  0  0  0  0  0
    4.3672    1.9052   -1.6851 S   0  0  0  0  0  0  0  0  0  0  0  0
    6.0198    1.6368   -1.3230 C   0  0  0  0  0  0  0  0  0  0  0  0
    6.1713    0.6261   -0.4114 C   0  0  0  0  0  0  0  0  0  0  0  0
    7.3893    0.2169    0.0404 N   0  0  0  0  0  0  0  0  0  0  0  0
    7.2523   -0.7974    0.9374 C   0  0  0  0  0  0  0  0  0  0  0  0
    6.0341   -1.3539    1.3451 C   0  0  0  0  0  0  0  0  0  0  0  0
    4.8063   -0.9643    0.9052 N   0  0  0  0  0  0  0  0  0  0  0  0
    4.9095    0.0577    0.0035 C   0  0  0  0  0  0  0  0  0  0  0  0
   -7.4150    1.1130   -0.0029 H   0  0  0  0  0  0  0  0  0  0  0  0
   -7.0305   -1.6131    0.2952 H   0  0  0  0  0  0  0  0  0  0  0  0
   -5.4474   -3.7089    0.6140 H   0  0  0  0  0  0  0  0  0  0  0  0
   -0.9502   -3.1912    0.7766 H   0  0  0  0  0  0  0  0  0  0  0  0
    0.2950   -2.2732   -0.4504 H   0  0  0  0  0  0  0  0  0  0  0  0
    2.6201   -1.7566   -0.6007 H   0  0  0  0  0  0  0  0  0  0  0  0
    1.7631    2.4405   -0.3700 H   0  0  0  0  0  0  0  0  0  0  0  0
    0.0091    4.1113   -0.3551 H   0  0  0  0  0  0  0  0  0  0  0  0
   -4.0083    3.3537   -0.1201 H   0  0  0  0  0  0  0  0  0  0  0  0
    6.7942    2.2250   -1.7932 H   0  0  0  0  0  0  0  0  0  0  0  0
    8.1865   -1.1746    1.3443 H   0  0  0  0  0  0  0  0  0  0  0  0
    6.0216   -2.1635    2.0698 H   0  0  0  0  0  0  0  0  0  0  0  0
  1  2  2  0
  2  3  1  0
  3  4  1  0
  4  5  2  0
  5  6  1  0
  6  7  1  0
  7  8  2  0
  8  9  1  0
  9 10  1  0
 10 11  2  0
 11 12  1  0
 12 13  2  0
 13 14  1  0
 14 15  2  0
 15 16  1  0
 16 17  2  0
 17 18  1  0
 18 19  1  0
 19 20  2  0
 20 21  1  0
 21 22  1  0
 22 23  1  0
 13 24  1  0
 24 25  1  0
 25 26  1  0
 26 27  2  0
 27 28  1  0
 28 29  2  0
 29 30  1  0
 30 31  2  0
 31 32  1  0
 23  1  1  0
 32 24  2  0
 22  3  2  0
 32 27  1  0
  8  4  1  0
 21  9  2  0
 15 10  1  0
 20 16  1  0
  1 33  1  0
  2 34  1  0
  5 35  1  0
  7 36  1  0
 11 37  1  0
 12 38  1  0
 14 39  1  0
 17 40  1  0
 19 41  1  0
 26 42  1  0
 29 43  1  0
 30 44  1  0
M  END
