
     RDKit          3D

 40 46  0  0  0  0  0  0  0  0999 V2000
   -3.4817   -3.5765   -1.0245 Si  0  0  0  0  0  4  0  0  0  0  0  0
   -1.6562   -3.2387   -0.9556 C   0  0  0  0  0  0  0  0  0  0  0  0
   -1.4128   -1.9687   -0.5785 C   0  0  0  0  0  0  0  0  0  0  0  0
   -0.1248   -1.3638   -0.4198 C   0  0  0  0  0  0  0  0  0  0  0  0
    1.1930   -1.8403   -0.5864 C   0  0  0  0  0  0  0  0  0  0  0  0
    2.0597   -0.7940   -0.2875 C   0  0  0  0  0  0  0  0  0  0  0  0
    1.2780    0.2929    0.0528 N   0  0  0  0  0  0  0  0  0  0  0  0
   -0.0406   -0.0459   -0.0254 C   0  0  0  0  0  0  0  0  0  0  0  0
   -1.1913    0.7634    0.2383 C   0  0  0  0  0  0  0  0  0  0  0  0
   -1.1522    2.3988    0.7288 S   0  0  0  0  0  0  0  0  0  0  0  0
   -2.8471    2.4617    0.7781 C   0  0  0  0  0  0  0  0  0  0  0  0
   -3.6604    3.5775    1.1278 C   0  0  0  0  0  0  0  0  0  0  0  0
   -4.9752    3.2805    1.0622 C   0  0  0  0  0  0  0  0  0  0  0  0
   -5.2691    1.4714    0.5241 Si  0  0  0  0  0  4  0  0  0  0  0  0
   -3.4068    1.2463    0.4231 C   0  0  0  0  0  0  0  0  0  0  0  0
   -2.4812    0.2434    0.1052 C   0  0  0  0  0  0  0  0  0  0  0  0
   -2.6425   -1.1374   -0.3068 C   0  0  0  0  0  0  0  0  0  0  0  0
   -3.7968   -1.8113   -0.4886 C   0  0  0  0  0  0  0  0  0  0  0  0
    3.4950   -0.7446   -0.2982 C   0  0  0  0  0  0  0  0  0  0  0  0
    4.4672   -2.1309   -0.7320 S   0  0  0  0  0  0  0  0  0  0  0  0
    5.9724   -1.3034   -0.5100 C   0  0  0  0  0  0  0  0  0  0  0  0
    5.6950   -0.0426   -0.1262 C   0  0  0  0  0  0  0  0  0  0  0  0
    6.6027    0.9370    0.1521 N   0  0  0  0  0  0  0  0  0  0  0  0
    5.7635    1.9960    0.4852 C   0  0  0  0  0  0  0  0  0  0  0  0
    4.4037    1.6272    0.3985 C   0  0  0  0  0  0  0  0  0  0  0  0
    4.3554    0.2634   -0.0105 C   0  0  0  0  0  0  0  0  0  0  0  0
   -3.9677   -3.8354   -2.4009 H   0  0  0  0  0  0  0  0  0  0  0  0
   -3.9248   -4.5557   -0.0033 H   0  0  0  0  0  0  0  0  0  0  0  0
   -0.9268   -3.9954   -1.1960 H   0  0  0  0  0  0  0  0  0  0  0  0
    1.4854   -2.8364   -0.8908 H   0  0  0  0  0  0  0  0  0  0  0  0
    1.6220    1.2028    0.3200 H   0  0  0  0  0  0  0  0  0  0  0  0
   -3.2580    4.5421    1.4104 H   0  0  0  0  0  0  0  0  0  0  0  0
   -5.8059    3.9344    1.2736 H   0  0  0  0  0  0  0  0  0  0  0  0
   -5.9652    1.4144   -0.7857 H   0  0  0  0  0  0  0  0  0  0  0  0
   -5.9222    0.6953    1.6079 H   0  0  0  0  0  0  0  0  0  0  0  0
   -4.8057   -1.4621   -0.3656 H   0  0  0  0  0  0  0  0  0  0  0  0
    6.9282   -1.7814   -0.6706 H   0  0  0  0  0  0  0  0  0  0  0  0
    7.6132    0.8797    0.1170 H   0  0  0  0  0  0  0  0  0  0  0  0
    6.2029    2.9458    0.7629 H   0  0  0  0  0  0  0  0  0  0  0  0
    3.5777    2.2906    0.6125 H   0  0  0  0  0  0  0  0  0  0  0  0
  1  2  1  0
  2  3  2  0
  3  4  1  0
  4  5  1  0
  5  6  2  0
  6  7  1  0
  7  8  1  0
  8  9  1  0
  9 10  1  0
 10 11  1  0
 11 12  1  0
 12 13  2  0
 13 14  1  0
 14 15  1  0
 15 16  1  0
 16 17  1  0
 17 18  2  0
  6 19  1  0
 19 20  1  0
 20 21  1  0
 21 22  2  0
 22 23  1  0
 23 24  1  0
 24 25  2  0
 25 26  1  0
 18  1  1  0
 26 19  2  0
 17  3  1  0
 26 22  1  0
  8  4  2  0
 16  9  2  0
 15 11  2  0
  1 27  1  0
  1 28  1  0
  2 29  1  0
  5 30  1  0
  7 31  1  0
 12 32  1  0
 13 33  1  0
 14 34  1  0
 14 35  1  0
 18 36  1  0
 21 37  1  0
 23 38  1  0
 24 39  1  0
 25 40  1  0
M  END
