
     RDKit          3D

 38 44  0  0  0  0  0  0  0  0999 V2000
   -5.7432    0.9881    2.4118 C   0  0  0  0  0  0  0  0  0  0  0  0
   -6.0982    0.4740    1.1766 C   0  0  0  0  0  0  0  0  0  0  0  0
   -4.8759    0.2282    0.5570 C   0  0  0  0  0  0  0  0  0  0  0  0
   -4.5405   -0.2969   -0.7194 C   0  0  0  0  0  0  0  0  0  0  0  0
   -5.4815   -0.6622   -1.5834 N   0  0  0  0  0  0  0  0  0  0  0  0
   -4.5881   -1.2025   -2.9114 S   0  0  0  0  0  0  0  0  0  0  0  0
   -3.0127   -0.9601   -2.3560 N   0  0  0  0  0  0  0  0  0  0  0  0
   -3.1756   -0.4584   -1.1380 C   0  0  0  0  0  0  0  0  0  0  0  0
   -2.0835   -0.0974   -0.2875 C   0  0  0  0  0  0  0  0  0  0  0  0
   -2.3942    0.4143    0.9548 C   0  0  0  0  0  0  0  0  0  0  0  0
   -1.2597    0.7116    1.6495 O   0  0  0  0  0  0  0  0  0  0  0  0
   -0.2059    0.3814    0.8296 C   0  0  0  0  0  0  0  0  0  0  0  0
    1.1586    0.5302    1.1597 C   0  0  0  0  0  0  0  0  0  0  0  0
    2.1652    0.1620    0.2318 C   0  0  0  0  0  0  0  0  0  0  0  0
    3.5905    0.3000    0.5060 C   0  0  0  0  0  0  0  0  0  0  0  0
    4.1935   -0.3451    1.5922 C   0  0  0  0  0  0  0  0  0  0  0  0
    5.5569   -0.1867    1.8350 C   0  0  0  0  0  0  0  0  0  0  0  0
    6.2866    0.6221    0.9809 C   0  0  0  0  0  0  0  0  0  0  0  0
    5.7521    1.2696   -0.0747 N   0  0  0  0  0  0  0  0  0  0  0  0
    4.4231    1.0962   -0.2815 C   0  0  0  0  0  0  0  0  0  0  0  0
    1.6296   -0.3461   -0.9645 C   0  0  0  0  0  0  0  0  0  0  0  0
    2.3425   -0.8259   -2.0435 C   0  0  0  0  0  0  0  0  0  0  0  0
    1.4403   -1.2363   -3.0084 N   0  0  0  0  0  0  0  0  0  0  0  0
    0.1478   -1.0445   -2.5657 C   0  0  0  0  0  0  0  0  0  0  0  0
    0.2707   -0.5095   -1.3198 C   0  0  0  0  0  0  0  0  0  0  0  0
   -0.7069   -0.1182   -0.3668 C   0  0  0  0  0  0  0  0  0  0  0  0
   -3.8556    0.5828    1.3928 C   0  0  0  0  0  0  0  0  0  0  0  0
   -4.3807    1.0581    2.5533 O   0  0  0  0  0  0  0  0  0  0  0  0
   -6.3096    1.3365    3.2651 H   0  0  0  0  0  0  0  0  0  0  0  0
   -7.0995    0.3115    0.8039 H   0  0  0  0  0  0  0  0  0  0  0  0
    1.4262    0.9434    2.1287 H   0  0  0  0  0  0  0  0  0  0  0  0
    3.6056   -0.9823    2.2489 H   0  0  0  0  0  0  0  0  0  0  0  0
    6.0366   -0.6845    2.6701 H   0  0  0  0  0  0  0  0  0  0  0  0
    7.3517    0.7759    1.1284 H   0  0  0  0  0  0  0  0  0  0  0  0
    4.0276    1.6449   -1.1334 H   0  0  0  0  0  0  0  0  0  0  0  0
    3.4043   -0.9252   -2.2280 H   0  0  0  0  0  0  0  0  0  0  0  0
    1.6921   -1.6305   -3.9058 H   0  0  0  0  0  0  0  0  0  0  0  0
   -0.6903   -1.3185   -3.1885 H   0  0  0  0  0  0  0  0  0  0  0  0
  1  2  2  0
  2  3  1  0
  3  4  1  0
  4  5  2  0
  5  6  1  0
  6  7  1  0
  7  8  2  0
  8  9  1  0
  9 10  2  0
 10 11  1  0
 11 12  1  0
 12 13  1  0
 13 14  2  0
 14 15  1  0
 15 16  2  0
 16 17  1  0
 17 18  2  0
 18 19  1  0
 19 20  2  0
 14 21  1  0
 21 22  2  0
 22 23  1  0
 23 24  1  0
 24 25  2  0
 25 26  1  0
 10 27  1  0
 27 28  1  0
 28  1  1  0
 27  3  2  0
  8  4  1  0
 26  9  1  0
 26 12  2  0
 20 15  1  0
 25 21  1  0
  1 29  1  0
  2 30  1  0
 13 31  1  0
 16 32  1  0
 17 33  1  0
 18 34  1  0
 20 35  1  0
 22 36  1  0
 23 37  1  0
 24 38  1  0
M  END
