
     RDKit          3D

 35 41  0  0  0  0  0  0  0  0999 V2000
   -5.3361    1.9208   -0.9174 C   0  0  0  0  0  0  0  0  0  0  0  0
   -5.5384    0.5750   -0.6466 C   0  0  0  0  0  0  0  0  0  0  0  0
   -4.2661    0.0632   -0.3987 C   0  0  0  0  0  0  0  0  0  0  0  0
   -3.8185   -1.2490   -0.0651 C   0  0  0  0  0  0  0  0  0  0  0  0
   -4.6645   -2.2652    0.0654 N   0  0  0  0  0  0  0  0  0  0  0  0
   -3.6494   -3.5579    0.4563 S   0  0  0  0  0  0  0  0  0  0  0  0
   -2.1400   -2.7960    0.4528 N   0  0  0  0  0  0  0  0  0  0  0  0
   -2.4270   -1.5359    0.1468 C   0  0  0  0  0  0  0  0  0  0  0  0
   -1.4266   -0.5225    0.0336 C   0  0  0  0  0  0  0  0  0  0  0  0
   -1.8462    0.7495   -0.2878 C   0  0  0  0  0  0  0  0  0  0  0  0
   -0.7873    1.6041   -0.3596 O   0  0  0  0  0  0  0  0  0  0  0  0
    0.3330    0.8540   -0.0773 C   0  0  0  0  0  0  0  0  0  0  0  0
    1.6577    1.3439   -0.0414 C   0  0  0  0  0  0  0  0  0  0  0  0
    2.7248    0.4668    0.2676 C   0  0  0  0  0  0  0  0  0  0  0  0
    4.1131    0.8817    0.3489 C   0  0  0  0  0  0  0  0  0  0  0  0
    5.0290    0.7434    1.3764 C   0  0  0  0  0  0  0  0  0  0  0  0
    6.2950    1.2416    1.1335 N   0  0  0  0  0  0  0  0  0  0  0  0
    6.3272    1.7609   -0.0732 C   0  0  0  0  0  0  0  0  0  0  0  0
    4.8686    1.6850   -0.9699 S   0  0  0  0  0  0  0  0  0  0  0  0
    2.3048   -0.8494    0.5064 C   0  0  0  0  0  0  0  0  0  0  0  0
    3.0863   -1.9456    0.7977 C   0  0  0  0  0  0  0  0  0  0  0  0
    2.3067   -3.0631    0.9563 O   0  0  0  0  0  0  0  0  0  0  0  0
    1.0012   -2.6926    0.7521 C   0  0  0  0  0  0  0  0  0  0  0  0
    0.9897   -1.3629    0.4735 C   0  0  0  0  0  0  0  0  0  0  0  0
   -0.0580   -0.4582    0.1669 C   0  0  0  0  0  0  0  0  0  0  0  0
   -3.3281    1.0490   -0.5122 C   0  0  0  0  0  0  0  0  0  0  0  0
   -3.9821    2.1997   -0.8326 N   0  0  0  0  0  0  0  0  0  0  0  0
   -6.0370    2.7078   -1.1637 H   0  0  0  0  0  0  0  0  0  0  0  0
   -6.4878    0.0553   -0.6356 H   0  0  0  0  0  0  0  0  0  0  0  0
    1.8403    2.3960   -0.2416 H   0  0  0  0  0  0  0  0  0  0  0  0
    4.8242    0.2840    2.3366 H   0  0  0  0  0  0  0  0  0  0  0  0
    7.2206    2.2138   -0.4833 H   0  0  0  0  0  0  0  0  0  0  0  0
    4.1475   -2.1145    0.9204 H   0  0  0  0  0  0  0  0  0  0  0  0
    0.2745   -3.4860    0.8410 H   0  0  0  0  0  0  0  0  0  0  0  0
   -3.5510    3.1034   -0.9827 H   0  0  0  0  0  0  0  0  0  0  0  0
  1  2  2  0
  2  3  1  0
  3  4  1  0
  4  5  2  0
  5  6  1  0
  6  7  1  0
  7  8  2  0
  8  9  1  0
  9 10  2  0
 10 11  1  0
 11 12  1  0
 12 13  1  0
 13 14  2  0
 14 15  1  0
 15 16  2  0
 16 17  1  0
 17 18  2  0
 18 19  1  0
 14 20  1  0
 20 21  2  0
 21 22  1  0
 22 23  1  0
 23 24  2  0
 24 25  1  0
 10 26  1  0
 26 27  1  0
 27  1  1  0
 26  3  2  0
  8  4  1  0
 25  9  1  0
 25 12  2  0
 19 15  1  0
 24 20  1  0
  1 28  1  0
  2 29  1  0
 13 30  1  0
 16 31  1  0
 18 32  1  0
 21 33  1  0
 23 34  1  0
 27 35  1  0
M  END
