
     RDKit          3D

 33 39  0  0  0  0  0  0  0  0999 V2000
    6.2584    0.7689    0.0719 C   0  0  0  0  0  0  0  0  0  0  0  0
    5.8968   -0.4844   -0.3909 C   0  0  0  0  0  0  0  0  0  0  0  0
    4.5050   -0.4650   -0.3499 C   0  0  0  0  0  0  0  0  0  0  0  0
    3.5317   -1.4486   -0.6963 C   0  0  0  0  0  0  0  0  0  0  0  0
    3.8702   -2.6481   -1.1558 N   0  0  0  0  0  0  0  0  0  0  0  0
    2.3710   -3.3980   -1.4016 S   0  0  0  0  0  0  0  0  0  0  0  0
    1.3082   -2.1710   -0.9142 N   0  0  0  0  0  0  0  0  0  0  0  0
    2.1296   -1.1870   -0.5639 C   0  0  0  0  0  0  0  0  0  0  0  0
    1.6879    0.0754   -0.0782 C   0  0  0  0  0  0  0  0  0  0  0  0
    0.3476    0.4204    0.0841 C   0  0  0  0  0  0  0  0  0  0  0  0
   -0.9101   -0.0914   -0.0780 N   0  0  0  0  0  0  0  0  0  0  0  0
   -1.8387    0.8575    0.3015 C   0  0  0  0  0  0  0  0  0  0  0  0
   -1.1458    1.9913    0.7113 C   0  0  0  0  0  0  0  0  0  0  0  0
    0.2400    1.6964    0.5667 C   0  0  0  0  0  0  0  0  0  0  0  0
    1.8019    2.4618    0.8168 S   0  0  0  0  0  0  0  0  0  0  0  0
    2.5701    1.0530    0.2682 C   0  0  0  0  0  0  0  0  0  0  0  0
    4.0747    0.7496    0.1175 C   0  0  0  0  0  0  0  0  0  0  0  0
    5.1589    1.5265    0.3836 O   0  0  0  0  0  0  0  0  0  0  0  0
   -3.2812    0.6079    0.2426 C   0  0  0  0  0  0  0  0  0  0  0  0
   -4.2593    1.5399    0.6169 C   0  0  0  0  0  0  0  0  0  0  0  0
   -5.6270    1.3916    0.5943 N   0  0  0  0  0  0  0  0  0  0  0  0
   -6.1921    0.2259    0.1694 C   0  0  0  0  0  0  0  0  0  0  0  0
   -5.3370   -0.8143   -0.2426 C   0  0  0  0  0  0  0  0  0  0  0  0
   -5.7121   -2.0240   -0.6886 N   0  0  0  0  0  0  0  0  0  0  0  0
   -4.3170   -2.8507   -1.0334 S   0  0  0  0  0  0  0  0  0  0  0  0
   -3.1764   -1.7149   -0.6338 N   0  0  0  0  0  0  0  0  0  0  0  0
   -3.8399   -0.6209   -0.2062 C   0  0  0  0  0  0  0  0  0  0  0  0
    7.2101    1.2576    0.2327 H   0  0  0  0  0  0  0  0  0  0  0  0
    6.5609   -1.2770   -0.7052 H   0  0  0  0  0  0  0  0  0  0  0  0
   -1.0941   -1.0292   -0.4264 H   0  0  0  0  0  0  0  0  0  0  0  0
   -1.5631    2.9219    1.0715 H   0  0  0  0  0  0  0  0  0  0  0  0
   -3.9575    2.5225    0.9792 H   0  0  0  0  0  0  0  0  0  0  0  0
   -7.2717    0.1564    0.1695 H   0  0  0  0  0  0  0  0  0  0  0  0
  1  2  2  0
  2  3  1  0
  3  4  1  0
  4  5  2  0
  5  6  1  0
  6  7  1  0
  7  8  2  0
  8  9  1  0
  9 10  1  0
 10 11  1  0
 11 12  1  0
 12 13  2  0
 13 14  1  0
 14 15  1  0
 15 16  1  0
 16 17  1  0
 17 18  1  0
 12 19  1  0
 19 20  2  0
 20 21  1  0
 21 22  2  0
 22 23  1  0
 23 24  2  0
 24 25  1  0
 25 26  1  0
 26 27  2  0
 18  1  1  0
 27 19  1  0
 17  3  2  0
 27 23  1  0
  8  4  1  0
 16  9  2  0
 14 10  2  0
  1 28  1  0
  2 29  1  0
 11 30  1  0
 13 31  1  0
 20 32  1  0
 22 33  1  0
M  END
