
     RDKit          3D

 39 45  0  0  0  0  0  0  0  0999 V2000
    7.1288   -0.2373   -0.4047 C   0  0  0  0  0  0  0  0  0  0  0  0
    6.4793    0.2939    0.6848 C   0  0  0  0  0  0  0  0  0  0  0  0
    5.0512    0.1829    0.5923 C   0  0  0  0  0  0  0  0  0  0  0  0
    4.0392    0.5938    1.4791 C   0  0  0  0  0  0  0  0  0  0  0  0
    2.6996    0.3752    1.1698 C   0  0  0  0  0  0  0  0  0  0  0  0
    1.5570    0.6903    1.8827 N   0  0  0  0  0  0  0  0  0  0  0  0
    0.4260    0.2914    1.2042 C   0  0  0  0  0  0  0  0  0  0  0  0
   -0.9504    0.3999    1.5332 C   0  0  0  0  0  0  0  0  0  0  0  0
   -1.9421   -0.0942    0.6512 C   0  0  0  0  0  0  0  0  0  0  0  0
   -3.3646    0.0042    0.9110 C   0  0  0  0  0  0  0  0  0  0  0  0
   -4.0647   -0.7984    2.2708 S   0  0  0  0  0  0  0  0  0  0  0  0
   -5.6579   -0.2461    1.9081 C   0  0  0  0  0  0  0  0  0  0  0  0
   -5.6464    0.5343    0.7880 C   0  0  0  0  0  0  0  0  0  0  0  0
   -6.9752    1.3946   -0.0700 S   0  0  0  0  0  0  0  0  0  0  0  0
   -5.7103    1.9337   -1.1685 C   0  0  0  0  0  0  0  0  0  0  0  0
   -4.4139    1.4861   -0.8882 C   0  0  0  0  0  0  0  0  0  0  0  0
   -4.3618    0.6538    0.2611 C   0  0  0  0  0  0  0  0  0  0  0  0
   -1.4131   -0.6721   -0.5106 C   0  0  0  0  0  0  0  0  0  0  0  0
   -2.1098   -1.2652   -1.5430 C   0  0  0  0  0  0  0  0  0  0  0  0
   -1.1933   -1.7114   -2.4800 N   0  0  0  0  0  0  0  0  0  0  0  0
    0.0922   -1.4240   -2.0683 C   0  0  0  0  0  0  0  0  0  0  0  0
   -0.0561   -0.7985   -0.8673 C   0  0  0  0  0  0  0  0  0  0  0  0
    0.9139   -0.2843    0.0417 C   0  0  0  0  0  0  0  0  0  0  0  0
    2.3138   -0.2520   -0.0162 C   0  0  0  0  0  0  0  0  0  0  0  0
    3.3190   -0.6611   -0.8987 C   0  0  0  0  0  0  0  0  0  0  0  0
    4.6690   -0.4444   -0.5945 C   0  0  0  0  0  0  0  0  0  0  0  0
    6.0375   -0.8742   -1.5493 S   0  0  0  0  0  0  0  0  0  0  0  0
    8.1941   -0.2821   -0.5837 H   0  0  0  0  0  0  0  0  0  0  0  0
    7.0005    0.7461    1.5195 H   0  0  0  0  0  0  0  0  0  0  0  0
    4.3138    1.0842    2.4097 H   0  0  0  0  0  0  0  0  0  0  0  0
    1.5529    1.1500    2.7813 H   0  0  0  0  0  0  0  0  0  0  0  0
   -1.2467    0.8741    2.4660 H   0  0  0  0  0  0  0  0  0  0  0  0
   -6.5133   -0.5063    2.5156 H   0  0  0  0  0  0  0  0  0  0  0  0
   -6.0099    2.5748   -1.9863 H   0  0  0  0  0  0  0  0  0  0  0  0
   -3.5581    1.7571   -1.4951 H   0  0  0  0  0  0  0  0  0  0  0  0
   -3.1672   -1.4240   -1.7072 H   0  0  0  0  0  0  0  0  0  0  0  0
   -1.4332   -2.1893   -3.3389 H   0  0  0  0  0  0  0  0  0  0  0  0
    0.9449   -1.7034   -2.6687 H   0  0  0  0  0  0  0  0  0  0  0  0
    3.0552   -1.1519   -1.8301 H   0  0  0  0  0  0  0  0  0  0  0  0
  1  2  2  0
  2  3  1  0
  3  4  2  0
  4  5  1  0
  5  6  1  0
  6  7  1  0
  7  8  1  0
  8  9  2  0
  9 10  1  0
 10 11  1  0
 11 12  1  0
 12 13  2  0
 13 14  1  0
 14 15  1  0
 15 16  2  0
 16 17  1  0
  9 18  1  0
 18 19  2  0
 19 20  1  0
 20 21  1  0
 21 22  2  0
 22 23  1  0
 23 24  1  0
 24 25  1  0
 25 26  2  0
 26 27  1  0
 27  1  1  0
 26  3  1  0
 24  5  2  0
 23  7  2  0
 17 10  2  0
 22 18  1  0
 17 13  1  0
  1 28  1  0
  2 29  1  0
  4 30  1  0
  6 31  1  0
  8 32  1  0
 12 33  1  0
 15 34  1  0
 16 35  1  0
 19 36  1  0
 20 37  1  0
 21 38  1  0
 25 39  1  0
M  END
