
     RDKit          3D

 31 35  0  0  0  0  0  0  0  0999 V2000
    6.1490    0.4456   -0.2265 C   0  0  0  0  0  0  0  0  0  0  0  0
    5.4441    0.0369   -1.3363 C   0  0  0  0  0  0  0  0  0  0  0  0
    4.0742    0.0389   -0.9644 C   0  0  0  0  0  0  0  0  0  0  0  0
    2.8561   -0.2605   -1.5900 C   0  0  0  0  0  0  0  0  0  0  0  0
    1.6458   -0.1400   -0.8841 C   0  0  0  0  0  0  0  0  0  0  0  0
    0.2792   -0.3572   -1.2091 C   0  0  0  0  0  0  0  0  0  0  0  0
   -0.5059   -0.0736   -0.0988 C   0  0  0  0  0  0  0  0  0  0  0  0
   -1.9679   -0.1377    0.0880 C   0  0  0  0  0  0  0  0  0  0  0  0
   -2.7984   -0.5426   -0.9762 C   0  0  0  0  0  0  0  0  0  0  0  0
   -4.1958   -0.6244   -0.8626 C   0  0  0  0  0  0  0  0  0  0  0  0
   -4.7320   -0.2801    0.3740 C   0  0  0  0  0  0  0  0  0  0  0  0
   -6.0046   -0.2314    0.8684 N   0  0  0  0  0  0  0  0  0  0  0  0
   -6.0293    0.1701    2.1500 N   0  0  0  0  0  0  0  0  0  0  0  0
   -4.7741    0.3924    2.5209 N   0  0  0  0  0  0  0  0  0  0  0  0
   -3.9610    0.1242    1.4520 C   0  0  0  0  0  0  0  0  0  0  0  0
   -2.5654    0.1993    1.3180 C   0  0  0  0  0  0  0  0  0  0  0  0
    0.3792    0.3121    0.8901 N   0  0  0  0  0  0  0  0  0  0  0  0
    1.6773    0.2801    0.4417 C   0  0  0  0  0  0  0  0  0  0  0  0
    2.8743    0.5840    1.0873 C   0  0  0  0  0  0  0  0  0  0  0  0
    4.0474    0.4537    0.3605 C   0  0  0  0  0  0  0  0  0  0  0  0
    5.3072    0.7012    0.8099 O   0  0  0  0  0  0  0  0  0  0  0  0
    7.1992    0.5986   -0.0209 H   0  0  0  0  0  0  0  0  0  0  0  0
    5.8652   -0.2294   -2.2949 H   0  0  0  0  0  0  0  0  0  0  0  0
    2.8451   -0.5875   -2.6258 H   0  0  0  0  0  0  0  0  0  0  0  0
   -0.0831   -0.6909   -2.1722 H   0  0  0  0  0  0  0  0  0  0  0  0
   -2.3620   -0.8085   -1.9373 H   0  0  0  0  0  0  0  0  0  0  0  0
   -4.8119   -0.9391   -1.6978 H   0  0  0  0  0  0  0  0  0  0  0  0
   -6.8796   -0.4497    0.4087 H   0  0  0  0  0  0  0  0  0  0  0  0
   -1.9949    0.5187    2.1800 H   0  0  0  0  0  0  0  0  0  0  0  0
    0.1221    0.5853    1.8264 H   0  0  0  0  0  0  0  0  0  0  0  0
    2.9003    0.9115    2.1208 H   0  0  0  0  0  0  0  0  0  0  0  0
  1  2  2  0
  2  3  1  0
  3  4  2  0
  4  5  1  0
  5  6  1  0
  6  7  2  0
  7  8  1  0
  8  9  2  0
  9 10  1  0
 10 11  2  0
 11 12  1  0
 12 13  1  0
 13 14  2  0
 14 15  1  0
 15 16  2  0
  7 17  1  0
 17 18  1  0
 18 19  1  0
 19 20  2  0
 20 21  1  0
 21  1  1  0
 20  3  1  0
 18  5  2  0
 16  8  1  0
 15 11  1  0
  1 22  1  0
  2 23  1  0
  4 24  1  0
  6 25  1  0
  9 26  1  0
 10 27  1  0
 12 28  1  0
 16 29  1  0
 17 30  1  0
 19 31  1  0
M  END
