
     RDKit          3D

 25 28  0  0  0  0  0  0  0  0999 V2000
    4.8873   -0.2495    0.1587 C   0  0  0  0  0  0  0  0  0  0  0  0
    4.2334    0.4875   -0.8031 C   0  0  0  0  0  0  0  0  0  0  0  0
    2.8447    0.3270   -0.5561 C   0  0  0  0  0  0  0  0  0  0  0  0
    1.6550    0.7870   -1.1371 C   0  0  0  0  0  0  0  0  0  0  0  0
    0.4095    0.4087   -0.6046 C   0  0  0  0  0  0  0  0  0  0  0  0
   -0.9428    0.6915   -0.9466 C   0  0  0  0  0  0  0  0  0  0  0  0
   -1.7516    0.0296   -0.0485 C   0  0  0  0  0  0  0  0  0  0  0  0
   -3.2949    0.0296   -0.0106 C   0  0  0  0  0  0  0  0  0  0  0  0
   -4.1666   -0.6238    0.8779 C   0  0  0  0  0  0  0  0  0  0  0  0
   -5.4488   -0.3826    0.5893 N   0  0  0  0  0  0  0  0  0  0  0  0
   -5.4214    0.4524   -0.5193 O   0  0  0  0  0  0  0  0  0  0  0  0
   -4.1313    0.6924   -0.8694 C   0  0  0  0  0  0  0  0  0  0  0  0
   -0.9412   -0.6450    0.8267 N   0  0  0  0  0  0  0  0  0  0  0  0
    0.3796   -0.4309    0.5102 C   0  0  0  0  0  0  0  0  0  0  0  0
    1.5486   -0.9010    1.1052 C   0  0  0  0  0  0  0  0  0  0  0  0
    2.7562   -0.5058    0.5512 C   0  0  0  0  0  0  0  0  0  0  0  0
    3.9962   -0.8568    0.9865 O   0  0  0  0  0  0  0  0  0  0  0  0
    5.9290   -0.4355    0.3799 H   0  0  0  0  0  0  0  0  0  0  0  0
    4.6998    1.0685   -1.5854 H   0  0  0  0  0  0  0  0  0  0  0  0
    1.6942    1.4400   -2.0046 H   0  0  0  0  0  0  0  0  0  0  0  0
   -1.2733    1.3154   -1.7664 H   0  0  0  0  0  0  0  0  0  0  0  0
   -3.9393   -1.2619    1.7189 H   0  0  0  0  0  0  0  0  0  0  0  0
   -3.9934    1.3349   -1.7254 H   0  0  0  0  0  0  0  0  0  0  0  0
   -1.2576   -1.2184    1.5954 H   0  0  0  0  0  0  0  0  0  0  0  0
    1.5286   -1.5534    1.9714 H   0  0  0  0  0  0  0  0  0  0  0  0
  1  2  2  0
  2  3  1  0
  3  4  2  0
  4  5  1  0
  5  6  1  0
  6  7  2  0
  7  8  1  0
  8  9  1  0
  9 10  2  0
 10 11  1  0
 11 12  1  0
  7 13  1  0
 13 14  1  0
 14 15  1  0
 15 16  2  0
 16 17  1  0
 17  1  1  0
 16  3  1  0
 14  5  2  0
 12  8  2  0
  1 18  1  0
  2 19  1  0
  4 20  1  0
  6 21  1  0
  9 22  1  0
 12 23  1  0
 13 24  1  0
 15 25  1  0
M  END
