
     RDKit          3D

 30 34  0  0  0  0  0  0  0  0999 V2000
    6.1110    0.0104   -0.4144 C   0  0  0  0  0  0  0  0  0  0  0  0
    5.2670    0.5338   -1.3680 C   0  0  0  0  0  0  0  0  0  0  0  0
    3.9463    0.3087   -0.9006 C   0  0  0  0  0  0  0  0  0  0  0  0
    2.6508    0.5772   -1.3604 C   0  0  0  0  0  0  0  0  0  0  0  0
    1.5746    0.1781   -0.5750 C   0  0  0  0  0  0  0  0  0  0  0  0
    0.2606    0.3584   -0.8686 O   0  0  0  0  0  0  0  0  0  0  0  0
   -0.4687   -0.1762    0.1594 C   0  0  0  0  0  0  0  0  0  0  0  0
   -1.9237   -0.0837    0.0353 C   0  0  0  0  0  0  0  0  0  0  0  0
   -2.7570   -0.6057    1.0434 C   0  0  0  0  0  0  0  0  0  0  0  0
   -4.1574   -0.5415    0.9706 C   0  0  0  0  0  0  0  0  0  0  0  0
   -4.6873    0.0716   -0.1621 C   0  0  0  0  0  0  0  0  0  0  0  0
   -5.9616    0.3212   -0.5873 N   0  0  0  0  0  0  0  0  0  0  0  0
   -5.9810    0.9528   -1.7720 N   0  0  0  0  0  0  0  0  0  0  0  0
   -4.7201    1.1302   -2.1480 N   0  0  0  0  0  0  0  0  0  0  0  0
   -3.9083    0.6001   -1.1805 C   0  0  0  0  0  0  0  0  0  0  0  0
   -2.5113    0.5266   -1.0901 C   0  0  0  0  0  0  0  0  0  0  0  0
    0.3917   -0.6981    1.1096 C   0  0  0  0  0  0  0  0  0  0  0  0
    1.7134   -0.4737    0.6435 C   0  0  0  0  0  0  0  0  0  0  0  0
    3.0083   -0.7428    1.1046 C   0  0  0  0  0  0  0  0  0  0  0  0
    4.0854   -0.3443    0.3200 C   0  0  0  0  0  0  0  0  0  0  0  0
    5.4015   -0.5248    0.6141 O   0  0  0  0  0  0  0  0  0  0  0  0
    7.1862   -0.0578   -0.3229 H   0  0  0  0  0  0  0  0  0  0  0  0
    5.5671    1.0178   -2.2863 H   0  0  0  0  0  0  0  0  0  0  0  0
    2.4812    1.0835   -2.3049 H   0  0  0  0  0  0  0  0  0  0  0  0
   -2.3197   -1.0807    1.9201 H   0  0  0  0  0  0  0  0  0  0  0  0
   -4.7833   -0.9492    1.7570 H   0  0  0  0  0  0  0  0  0  0  0  0
   -6.8418    0.0987   -0.1397 H   0  0  0  0  0  0  0  0  0  0  0  0
   -1.9090    0.9425   -1.8913 H   0  0  0  0  0  0  0  0  0  0  0  0
    0.1075   -1.1841    2.0314 H   0  0  0  0  0  0  0  0  0  0  0  0
    3.1778   -1.2491    2.0490 H   0  0  0  0  0  0  0  0  0  0  0  0
  1  2  2  0
  2  3  1  0
  3  4  2  0
  4  5  1  0
  5  6  1  0
  6  7  1  0
  7  8  1  0
  8  9  2  0
  9 10  1  0
 10 11  2  0
 11 12  1  0
 12 13  1  0
 13 14  2  0
 14 15  1  0
 15 16  2  0
  7 17  2  0
 17 18  1  0
 18 19  1  0
 19 20  2  0
 20 21  1  0
 21  1  1  0
 20  3  1  0
 18  5  2  0
 16  8  1  0
 15 11  1  0
  1 22  1  0
  2 23  1  0
  4 24  1  0
  9 25  1  0
 10 26  1  0
 12 27  1  0
 16 28  1  0
 17 29  1  0
 19 30  1  0
M  END
