
     RDKit          3D

 49 55  0  0  0  0  0  0  0  0999 V2000
    1.8956   -3.9938   -1.8093 Si  0  0  0  0  0  4  0  0  0  0  0  0
    0.4174   -3.0064   -1.2503 C   0  0  0  0  0  0  0  0  0  0  0  0
    0.7704   -1.8044   -0.7415 C   0  0  0  0  0  0  0  0  0  0  0  0
   -0.1801   -0.7568   -0.3047 C   0  0  0  0  0  0  0  0  0  0  0  0
   -1.5547   -1.0170   -0.2646 C   0  0  0  0  0  0  0  0  0  0  0  0
   -2.4915   -0.0240    0.0367 C   0  0  0  0  0  0  0  0  0  0  0  0
   -3.9112   -0.4189    0.0723 C   0  0  0  0  0  0  0  0  0  0  0  0
   -4.5134   -0.8129    1.2772 C   0  0  0  0  0  0  0  0  0  0  0  0
   -5.8564   -1.1938    1.3112 C   0  0  0  0  0  0  0  0  0  0  0  0
   -6.6126   -1.1881    0.1406 C   0  0  0  0  0  0  0  0  0  0  0  0
   -6.0280   -0.8028   -1.0644 C   0  0  0  0  0  0  0  0  0  0  0  0
   -4.6849   -0.4220   -1.0989 C   0  0  0  0  0  0  0  0  0  0  0  0
   -2.0498    1.3014    0.2519 C   0  0  0  0  0  0  0  0  0  0  0  0
   -2.9863    2.3412    0.4866 C   0  0  0  0  0  0  0  0  0  0  0  0
   -2.6042    3.6673    0.6532 C   0  0  0  0  0  0  0  0  0  0  0  0
   -1.2673    3.9910    0.5737 C   0  0  0  0  0  0  0  0  0  0  0  0
   -0.3242    2.9821    0.3558 C   0  0  0  0  0  0  0  0  0  0  0  0
   -0.6528    1.6020    0.2212 C   0  0  0  0  0  0  0  0  0  0  0  0
    0.3133    0.5318    0.0301 C   0  0  0  0  0  0  0  0  0  0  0  0
    1.8100    0.6971    0.2097 C   0  0  0  0  0  0  0  0  0  0  0  0
    2.1998    1.8265    0.8479 N   0  0  0  0  0  0  0  0  0  0  0  0
    3.5061    2.0360    1.0754 C   0  0  0  0  0  0  0  0  0  0  0  0
    4.5030    1.1514    0.7149 C   0  0  0  0  0  0  0  0  0  0  0  0
    5.8527    1.4363    0.9838 C   0  0  0  0  0  0  0  0  0  0  0  0
    6.8319    0.5246    0.6304 C   0  0  0  0  0  0  0  0  0  0  0  0
    6.4190   -0.6384    0.0241 C   0  0  0  0  0  0  0  0  0  0  0  0
    5.1247   -0.9268   -0.2418 N   0  0  0  0  0  0  0  0  0  0  0  0
    4.1378   -0.0502    0.0854 C   0  0  0  0  0  0  0  0  0  0  0  0
    2.7585   -0.2863   -0.1609 C   0  0  0  0  0  0  0  0  0  0  0  0
    2.2265   -1.5522   -0.7336 C   0  0  0  0  0  0  0  0  0  0  0  0
    2.9466   -2.5622   -1.2699 C   0  0  0  0  0  0  0  0  0  0  0  0
    2.1016   -5.2112   -0.9879 H   0  0  0  0  0  0  0  0  0  0  0  0
    1.9078   -4.2024   -3.2775 H   0  0  0  0  0  0  0  0  0  0  0  0
   -0.5685   -3.4132   -1.3989 H   0  0  0  0  0  0  0  0  0  0  0  0
   -1.9309   -2.0168   -0.4687 H   0  0  0  0  0  0  0  0  0  0  0  0
   -3.9329   -0.8209    2.1977 H   0  0  0  0  0  0  0  0  0  0  0  0
   -6.3107   -1.4946    2.2516 H   0  0  0  0  0  0  0  0  0  0  0  0
   -7.6580   -1.4844    0.1674 H   0  0  0  0  0  0  0  0  0  0  0  0
   -6.6164   -0.7981   -1.9781 H   0  0  0  0  0  0  0  0  0  0  0  0
   -4.2397   -0.1214   -2.0453 H   0  0  0  0  0  0  0  0  0  0  0  0
   -4.0530    2.1264    0.5309 H   0  0  0  0  0  0  0  0  0  0  0  0
   -3.3511    4.4364    0.8247 H   0  0  0  0  0  0  0  0  0  0  0  0
   -0.9431    5.0230    0.6739 H   0  0  0  0  0  0  0  0  0  0  0  0
    0.7025    3.3218    0.2621 H   0  0  0  0  0  0  0  0  0  0  0  0
    3.7287    2.9730    1.5791 H   0  0  0  0  0  0  0  0  0  0  0  0
    6.1405    2.3647    1.4713 H   0  0  0  0  0  0  0  0  0  0  0  0
    7.8808    0.7137    0.8251 H   0  0  0  0  0  0  0  0  0  0  0  0
    7.1321   -1.4005   -0.2770 H   0  0  0  0  0  0  0  0  0  0  0  0
    4.0145   -2.6270   -1.3928 H   0  0  0  0  0  0  0  0  0  0  0  0
  1  2  1  0
  2  3  2  0
  3  4  1  0
  4  5  2  0
  5  6  1  0
  6  7  1  0
  7  8  2  0
  8  9  1  0
  9 10  2  0
 10 11  1  0
 11 12  2  0
  6 13  2  0
 13 14  1  0
 14 15  2  0
 15 16  1  0
 16 17  2  0
 17 18  1  0
 18 19  2  0
 19 20  1  0
 20 21  2  0
 21 22  1  0
 22 23  2  0
 23 24  1  0
 24 25  2  0
 25 26  1  0
 26 27  2  0
 27 28  1  0
 28 29  2  0
 29 30  1  0
 30 31  2  0
 31  1  1  0
 30  3  1  0
 19  4  1  0
 29 20  1  0
 12  7  1  0
 18 13  1  0
 28 23  1  0
  1 32  1  0
  1 33  1  0
  2 34  1  0
  5 35  1  0
  8 36  1  0
  9 37  1  0
 10 38  1  0
 11 39  1  0
 12 40  1  0
 14 41  1  0
 15 42  1  0
 16 43  1  0
 17 44  1  0
 22 45  1  0
 24 46  1  0
 25 47  1  0
 26 48  1  0
 31 49  1  0
M  END
