
     RDKit          3D

 35 40  0  0  0  0  0  0  0  0999 V2000
   -6.8791   -0.0893    0.0305 C   0  0  0  0  0  0  0  0  0  0  0  0
   -5.9771    0.4742   -0.8583 C   0  0  0  0  0  0  0  0  0  0  0  0
   -4.6062    0.3467   -0.6035 C   0  0  0  0  0  0  0  0  0  0  0  0
   -3.6455    0.8969   -1.4689 C   0  0  0  0  0  0  0  0  0  0  0  0
   -2.2745    0.7451   -1.1742 C   0  0  0  0  0  0  0  0  0  0  0  0
   -0.9498    1.3381   -2.0973 S   0  0  0  0  0  0  0  0  0  0  0  0
    0.2091    0.6988   -1.0121 C   0  0  0  0  0  0  0  0  0  0  0  0
    1.6104    0.7748   -1.0855 C   0  0  0  0  0  0  0  0  0  0  0  0
    2.3688    0.1667   -0.0768 C   0  0  0  0  0  0  0  0  0  0  0  0
    1.6552   -0.4738    0.9356 C   0  0  0  0  0  0  0  0  0  0  0  0
    0.3102   -0.5592    1.0431 N   0  0  0  0  0  0  0  0  0  0  0  0
   -0.4029    0.0365    0.0465 C   0  0  0  0  0  0  0  0  0  0  0  0
   -1.8404    0.0598   -0.0406 C   0  0  0  0  0  0  0  0  0  0  0  0
   -2.8216   -0.4902    0.8229 C   0  0  0  0  0  0  0  0  0  0  0  0
   -4.1931   -0.3476    0.5433 C   0  0  0  0  0  0  0  0  0  0  0  0
   -5.1882   -0.8751    1.3700 C   0  0  0  0  0  0  0  0  0  0  0  0
   -6.5171   -0.7620    1.1406 N   0  0  0  0  0  0  0  0  0  0  0  0
    3.8311    0.2242   -0.0880 C   0  0  0  0  0  0  0  0  0  0  0  0
    4.5761    1.3843   -0.3589 C   0  0  0  0  0  0  0  0  0  0  0  0
    5.9419    1.5322   -0.3995 N   0  0  0  0  0  0  0  0  0  0  0  0
    6.7634    0.4713   -0.1578 C   0  0  0  0  0  0  0  0  0  0  0  0
    6.1692   -0.7713    0.1318 C   0  0  0  0  0  0  0  0  0  0  0  0
    6.8114   -1.9210    0.3931 N   0  0  0  0  0  0  0  0  0  0  0  0
    5.6386   -3.0654    0.6507 S   0  0  0  0  0  0  0  0  0  0  0  0
    4.2689   -2.1524    0.4508 N   0  0  0  0  0  0  0  0  0  0  0  0
    4.6658   -0.8978    0.1678 C   0  0  0  0  0  0  0  0  0  0  0  0
   -7.9499   -0.0105   -0.1347 H   0  0  0  0  0  0  0  0  0  0  0  0
   -6.3447    1.0018   -1.7322 H   0  0  0  0  0  0  0  0  0  0  0  0
   -3.9484    1.4376   -2.3623 H   0  0  0  0  0  0  0  0  0  0  0  0
    2.0803    1.2842   -1.9224 H   0  0  0  0  0  0  0  0  0  0  0  0
    2.1784   -0.9630    1.7567 H   0  0  0  0  0  0  0  0  0  0  0  0
   -2.4905   -1.0277    1.7097 H   0  0  0  0  0  0  0  0  0  0  0  0
   -4.9349   -1.4241    2.2737 H   0  0  0  0  0  0  0  0  0  0  0  0
    4.0534    2.3213   -0.5605 H   0  0  0  0  0  0  0  0  0  0  0  0
    7.8318    0.6360   -0.2010 H   0  0  0  0  0  0  0  0  0  0  0  0
  1  2  2  0
  2  3  1  0
  3  4  2  0
  4  5  1  0
  5  6  1  0
  6  7  1  0
  7  8  2  0
  8  9  1  0
  9 10  2  0
 10 11  1  0
 11 12  2  0
 12 13  1  0
 13 14  1  0
 14 15  2  0
 15 16  1  0
 16 17  2  0
  9 18  1  0
 18 19  2  0
 19 20  1  0
 20 21  2  0
 21 22  1  0
 22 23  2  0
 23 24  1  0
 24 25  1  0
 25 26  2  0
 17  1  1  0
 26 18  1  0
 15  3  1  0
 26 22  1  0
 13  5  2  0
 12  7  1  0
  1 27  1  0
  2 28  1  0
  4 29  1  0
  8 30  1  0
 10 31  1  0
 14 32  1  0
 16 33  1  0
 19 34  1  0
 21 35  1  0
M  END
