
     RDKit          3D

 31 36  0  0  0  0  0  0  0  0999 V2000
    6.1225   -1.9202   -0.2973 C   0  0  0  0  0  0  0  0  0  0  0  0
    6.1797   -0.6650    0.2655 C   0  0  0  0  0  0  0  0  0  0  0  0
    4.8393   -0.2097    0.3627 C   0  0  0  0  0  0  0  0  0  0  0  0
    4.1928    0.9404    0.8234 C   0  0  0  0  0  0  0  0  0  0  0  0
    2.7919    1.0419    0.7586 C   0  0  0  0  0  0  0  0  0  0  0  0
    1.8407    2.3831    1.2804 S   0  0  0  0  0  0  0  0  0  0  0  0
    0.3808    1.5681    0.8033 C   0  0  0  0  0  0  0  0  0  0  0  0
   -1.0080    1.8947    0.8395 C   0  0  0  0  0  0  0  0  0  0  0  0
   -1.7964    0.8783    0.3256 C   0  0  0  0  0  0  0  0  0  0  0  0
   -0.8464   -0.4619   -0.1959 S   0  0  0  0  0  0  0  0  0  0  0  0
    0.6282    0.3379    0.2756 C   0  0  0  0  0  0  0  0  0  0  0  0
    2.0229   -0.0008    0.2345 C   0  0  0  0  0  0  0  0  0  0  0  0
    2.6775   -1.1586   -0.2291 C   0  0  0  0  0  0  0  0  0  0  0  0
    4.0573   -1.2304   -0.1527 C   0  0  0  0  0  0  0  0  0  0  0  0
    4.8347   -2.2715   -0.5546 O   0  0  0  0  0  0  0  0  0  0  0  0
   -3.2389    0.8865    0.2159 C   0  0  0  0  0  0  0  0  0  0  0  0
   -4.2338    2.2287    0.7347 S   0  0  0  0  0  0  0  0  0  0  0  0
   -5.7237    1.4654    0.2783 C   0  0  0  0  0  0  0  0  0  0  0  0
   -5.4184    0.2573   -0.2350 C   0  0  0  0  0  0  0  0  0  0  0  0
   -6.0607   -0.8620   -0.7832 C   0  0  0  0  0  0  0  0  0  0  0  0
   -5.0258   -1.7498   -1.0968 C   0  0  0  0  0  0  0  0  0  0  0  0
   -3.7635   -1.2803   -0.7889 O   0  0  0  0  0  0  0  0  0  0  0  0
   -4.0798   -0.0584   -0.2703 C   0  0  0  0  0  0  0  0  0  0  0  0
    6.8679   -2.6558   -0.5659 H   0  0  0  0  0  0  0  0  0  0  0  0
    7.0766   -0.1438    0.5677 H   0  0  0  0  0  0  0  0  0  0  0  0
    4.7771    1.7605    1.2340 H   0  0  0  0  0  0  0  0  0  0  0  0
   -1.3852    2.8329    1.2271 H   0  0  0  0  0  0  0  0  0  0  0  0
    2.1120   -1.9886   -0.6426 H   0  0  0  0  0  0  0  0  0  0  0  0
   -6.6778    1.9526    0.4200 H   0  0  0  0  0  0  0  0  0  0  0  0
   -7.1156   -1.0329   -0.9421 H   0  0  0  0  0  0  0  0  0  0  0  0
   -5.0279   -2.7387   -1.5368 H   0  0  0  0  0  0  0  0  0  0  0  0
  1  2  2  0
  2  3  1  0
  3  4  2  0
  4  5  1  0
  5  6  1  0
  6  7  1  0
  7  8  1  0
  8  9  2  0
  9 10  1  0
 10 11  1  0
 11 12  1  0
 12 13  1  0
 13 14  2  0
 14 15  1  0
  9 16  1  0
 16 17  1  0
 17 18  1  0
 18 19  2  0
 19 20  1  0
 20 21  2  0
 21 22  1  0
 22 23  1  0
 15  1  1  0
 23 16  2  0
 14  3  1  0
 23 19  1  0
 12  5  2  0
 11  7  2  0
  1 24  1  0
  2 25  1  0
  4 26  1  0
  8 27  1  0
 13 28  1  0
 18 29  1  0
 20 30  1  0
 21 31  1  0
M  END
