
     RDKit          3D

 36 41  0  0  0  0  0  0  0  0999 V2000
    5.3890    0.9213   -0.2746 C   0  0  0  0  0  0  0  0  0  0  0  0
    5.4424   -0.5653   -0.0781 C   0  0  0  0  0  0  0  0  0  0  0  0
    4.1943   -1.0450    0.0068 C   0  0  0  0  0  0  0  0  0  0  0  0
    3.7729   -2.4160    0.1960 C   0  0  0  0  0  0  0  0  0  0  0  0
    2.4553   -2.6944    0.2554 C   0  0  0  0  0  0  0  0  0  0  0  0
    1.5241   -1.6092    0.1271 C   0  0  0  0  0  0  0  0  0  0  0  0
   -0.1472   -1.8528    0.1879 S   0  0  0  0  0  0  0  0  0  0  0  0
   -0.5287   -0.1771   -0.0283 C   0  0  0  0  0  0  0  0  0  0  0  0
    0.6634    0.5731   -0.1482 C   0  0  0  0  0  0  0  0  0  0  0  0
    0.5498    1.9611   -0.3306 C   0  0  0  0  0  0  0  0  0  0  0  0
   -0.6413    2.5840   -0.3934 N   0  0  0  0  0  0  0  0  0  0  0  0
   -1.7637    1.8519   -0.2771 C   0  0  0  0  0  0  0  0  0  0  0  0
   -3.0013    2.6503   -0.3625 C   0  0  0  0  0  0  0  0  0  0  0  0
   -4.2171    2.0911   -0.2678 C   0  0  0  0  0  0  0  0  0  0  0  0
   -4.3361    0.6637   -0.0759 C   0  0  0  0  0  0  0  0  0  0  0  0
   -5.5196    0.0308    0.0282 C   0  0  0  0  0  0  0  0  0  0  0  0
   -5.2851   -1.7985    0.2678 Si  0  0  0  0  0  4  0  0  0  0  0  0
   -3.4341   -1.5055    0.1978 C   0  0  0  0  0  0  0  0  0  0  0  0
   -3.1267   -0.2027    0.0191 C   0  0  0  0  0  0  0  0  0  0  0  0
   -1.7946    0.4562   -0.0910 C   0  0  0  0  0  0  0  0  0  0  0  0
    1.8327   -0.2676   -0.0563 C   0  0  0  0  0  0  0  0  0  0  0  0
    3.2311    0.0564   -0.1231 C   0  0  0  0  0  0  0  0  0  0  0  0
    3.9102    1.2005   -0.2866 C   0  0  0  0  0  0  0  0  0  0  0  0
    5.8807    1.4456    0.5500 H   0  0  0  0  0  0  0  0  0  0  0  0
    5.8506    1.2102   -1.2234 H   0  0  0  0  0  0  0  0  0  0  0  0
    6.3533   -1.1406   -0.0173 H   0  0  0  0  0  0  0  0  0  0  0  0
    4.5196   -3.1963    0.2870 H   0  0  0  0  0  0  0  0  0  0  0  0
    2.1030   -3.7110    0.3964 H   0  0  0  0  0  0  0  0  0  0  0  0
    1.4048    2.6164   -0.4322 H   0  0  0  0  0  0  0  0  0  0  0  0
   -2.8821    3.7183   -0.5066 H   0  0  0  0  0  0  0  0  0  0  0  0
   -5.1136    2.6981   -0.3335 H   0  0  0  0  0  0  0  0  0  0  0  0
   -6.5025    0.4726   -0.0140 H   0  0  0  0  0  0  0  0  0  0  0  0
   -5.7325   -2.2616    1.6034 H   0  0  0  0  0  0  0  0  0  0  0  0
   -5.7742   -2.5929   -0.8846 H   0  0  0  0  0  0  0  0  0  0  0  0
   -2.7883   -2.3571    0.3004 H   0  0  0  0  0  0  0  0  0  0  0  0
    3.5115    2.1919   -0.4114 H   0  0  0  0  0  0  0  0  0  0  0  0
  1  2  1  0
  2  3  2  0
  3  4  1  0
  4  5  2  0
  5  6  1  0
  6  7  1  0
  7  8  1  0
  8  9  2  0
  9 10  1  0
 10 11  2  0
 11 12  1  0
 12 13  1  0
 13 14  2  0
 14 15  1  0
 15 16  2  0
 16 17  1  0
 17 18  1  0
 18 19  2  0
 19 20  1  0
  9 21  1  0
 21 22  1  0
 22 23  2  0
 23  1  1  0
 22  3  1  0
 21  6  2  0
 20  8  1  0
 20 12  2  0
 19 15  1  0
  1 24  1  0
  1 25  1  0
  2 26  1  0
  4 27  1  0
  5 28  1  0
 10 29  1  0
 13 30  1  0
 14 31  1  0
 16 32  1  0
 17 33  1  0
 17 34  1  0
 18 35  1  0
 23 36  1  0
M  END
