
     RDKit          3D

 36 41  0  0  0  0  0  0  0  0999 V2000
   -5.7004    2.5962    0.2544 C   0  0  0  0  0  0  0  0  0  0  0  0
   -6.1645    1.2974    0.2806 C   0  0  0  0  0  0  0  0  0  0  0  0
   -5.0206    0.4624    0.2283 C   0  0  0  0  0  0  0  0  0  0  0  0
   -4.7475   -0.9229    0.2195 C   0  0  0  0  0  0  0  0  0  0  0  0
   -3.4125   -1.4313    0.1570 C   0  0  0  0  0  0  0  0  0  0  0  0
   -2.2829   -0.5835    0.1000 C   0  0  0  0  0  0  0  0  0  0  0  0
   -2.5118    0.7795    0.1069 C   0  0  0  0  0  0  0  0  0  0  0  0
   -1.3366    1.4702    0.0490 N   0  0  0  0  0  0  0  0  0  0  0  0
   -0.2859    0.5722   -0.0005 C   0  0  0  0  0  0  0  0  0  0  0  0
    1.1027    0.7762   -0.0685 C   0  0  0  0  0  0  0  0  0  0  0  0
    1.9890   -0.3309   -0.1033 C   0  0  0  0  0  0  0  0  0  0  0  0
    3.4449   -0.1554   -0.1764 C   0  0  0  0  0  0  0  0  0  0  0  0
    4.3033   -0.7521    0.7618 C   0  0  0  0  0  0  0  0  0  0  0  0
    5.6869   -0.5651    0.6968 C   0  0  0  0  0  0  0  0  0  0  0  0
    6.2377    0.2253   -0.3082 C   0  0  0  0  0  0  0  0  0  0  0  0
    5.4064    0.8277   -1.2484 C   0  0  0  0  0  0  0  0  0  0  0  0
    4.0229    0.6396   -1.1816 C   0  0  0  0  0  0  0  0  0  0  0  0
    1.3860   -1.6262   -0.0693 C   0  0  0  0  0  0  0  0  0  0  0  0
    2.0161   -2.8223   -0.1007 N   0  0  0  0  0  0  0  0  0  0  0  0
    0.8407   -4.0083   -0.0455 S   0  0  0  0  0  0  0  0  0  0  0  0
   -0.5427   -3.0702    0.0252 N   0  0  0  0  0  0  0  0  0  0  0  0
   -0.0559   -1.8386   -0.0008 C   0  0  0  0  0  0  0  0  0  0  0  0
   -0.8855   -0.6767    0.0336 C   0  0  0  0  0  0  0  0  0  0  0  0
   -3.9447    1.3290    0.1740 C   0  0  0  0  0  0  0  0  0  0  0  0
   -4.3404    2.6231    0.1891 O   0  0  0  0  0  0  0  0  0  0  0  0
   -6.1838    3.5631    0.2748 H   0  0  0  0  0  0  0  0  0  0  0  0
   -7.2000    0.9935    0.3313 H   0  0  0  0  0  0  0  0  0  0  0  0
   -5.5716   -1.6324    0.2612 H   0  0  0  0  0  0  0  0  0  0  0  0
   -3.2678   -2.5108    0.1535 H   0  0  0  0  0  0  0  0  0  0  0  0
   -1.2565    2.4781    0.0437 H   0  0  0  0  0  0  0  0  0  0  0  0
    1.5036    1.7882   -0.0814 H   0  0  0  0  0  0  0  0  0  0  0  0
    3.8972   -1.3740    1.5575 H   0  0  0  0  0  0  0  0  0  0  0  0
    6.3318   -1.0408    1.4310 H   0  0  0  0  0  0  0  0  0  0  0  0
    7.3137    0.3679   -0.3605 H   0  0  0  0  0  0  0  0  0  0  0  0
    5.8331    1.4406   -2.0379 H   0  0  0  0  0  0  0  0  0  0  0  0
    3.3955    1.1114   -1.9351 H   0  0  0  0  0  0  0  0  0  0  0  0
  1  2  2  0
  2  3  1  0
  3  4  2  0
  4  5  1  0
  5  6  2  0
  6  7  1  0
  7  8  1  0
  8  9  1  0
  9 10  1  0
 10 11  2  0
 11 12  1  0
 12 13  2  0
 13 14  1  0
 14 15  2  0
 15 16  1  0
 16 17  2  0
 11 18  1  0
 18 19  2  0
 19 20  1  0
 20 21  1  0
 21 22  2  0
 22 23  1  0
  7 24  2  0
 24 25  1  0
 25  1  1  0
 24  3  1  0
 23  6  1  0
 23  9  2  0
 17 12  1  0
 22 18  1  0
  1 26  1  0
  2 27  1  0
  4 28  1  0
  5 29  1  0
  8 30  1  0
 10 31  1  0
 13 32  1  0
 14 33  1  0
 15 34  1  0
 16 35  1  0
 17 36  1  0
M  END
