
     RDKit          3D

 41 47  0  0  0  0  0  0  0  0999 V2000
   -3.4964   -2.2268    2.5678 C   0  0  0  0  0  0  0  0  0  0  0  0
   -4.3809   -1.1919    1.9447 C   0  0  0  0  0  0  0  0  0  0  0  0
   -3.6449   -0.4259    1.1292 C   0  0  0  0  0  0  0  0  0  0  0  0
   -4.0419    0.7525    0.4261 C   0  0  0  0  0  0  0  0  0  0  0  0
   -3.0858    1.4988   -0.1509 C   0  0  0  0  0  0  0  0  0  0  0  0
   -1.6241    1.1325   -0.1331 C   0  0  0  0  0  0  0  0  0  0  0  0
   -0.6312    2.0453   -0.5691 C   0  0  0  0  0  0  0  0  0  0  0  0
   -0.9495    3.4095   -0.8304 C   0  0  0  0  0  0  0  0  0  0  0  0
   -0.0140    4.3417   -1.2622 C   0  0  0  0  0  0  0  0  0  0  0  0
    1.2833    3.9342   -1.4487 C   0  0  0  0  0  0  0  0  0  0  0  0
    1.6294    2.6064   -1.1831 C   0  0  0  0  0  0  0  0  0  0  0  0
    0.7235    1.6070   -0.7163 C   0  0  0  0  0  0  0  0  0  0  0  0
    1.1085    0.2159   -0.4571 C   0  0  0  0  0  0  0  0  0  0  0  0
    2.4836   -0.2836   -0.5592 C   0  0  0  0  0  0  0  0  0  0  0  0
    3.5395    0.5474   -0.7105 N   0  0  0  0  0  0  0  0  0  0  0  0
    4.8157    0.0946   -0.8029 C   0  0  0  0  0  0  0  0  0  0  0  0
    5.1637   -1.2318   -0.7550 C   0  0  0  0  0  0  0  0  0  0  0  0
    4.1349   -2.1354   -0.5966 C   0  0  0  0  0  0  0  0  0  0  0  0
    2.8060   -1.6635   -0.4893 C   0  0  0  0  0  0  0  0  0  0  0  0
    1.7375   -2.5791   -0.3323 C   0  0  0  0  0  0  0  0  0  0  0  0
    1.8439   -3.9222   -0.3286 N   0  0  0  0  0  0  0  0  0  0  0  0
    0.3138   -4.5230   -0.1928 S   0  0  0  0  0  0  0  0  0  0  0  0
   -0.5310   -3.1132   -0.0967 N   0  0  0  0  0  0  0  0  0  0  0  0
    0.3438   -2.0901   -0.1357 C   0  0  0  0  0  0  0  0  0  0  0  0
    0.0415   -0.6760   -0.0777 C   0  0  0  0  0  0  0  0  0  0  0  0
   -1.2550   -0.1842    0.2533 C   0  0  0  0  0  0  0  0  0  0  0  0
   -2.2709   -0.9061    1.0741 C   0  0  0  0  0  0  0  0  0  0  0  0
   -2.1569   -1.9017    1.9725 C   0  0  0  0  0  0  0  0  0  0  0  0
   -3.4765   -2.1206    3.6564 H   0  0  0  0  0  0  0  0  0  0  0  0
   -3.8145   -3.2386    2.3007 H   0  0  0  0  0  0  0  0  0  0  0  0
   -5.4241   -1.0546    2.1824 H   0  0  0  0  0  0  0  0  0  0  0  0
   -5.0882    1.0307    0.3814 H   0  0  0  0  0  0  0  0  0  0  0  0
   -3.3994    2.3711   -0.7103 H   0  0  0  0  0  0  0  0  0  0  0  0
   -1.9528    3.7948   -0.6709 H   0  0  0  0  0  0  0  0  0  0  0  0
   -0.3048    5.3714   -1.4468 H   0  0  0  0  0  0  0  0  0  0  0  0
    2.0387    4.6329   -1.7974 H   0  0  0  0  0  0  0  0  0  0  0  0
    2.6696    2.3773   -1.3838 H   0  0  0  0  0  0  0  0  0  0  0  0
    5.5688    0.8688   -0.9222 H   0  0  0  0  0  0  0  0  0  0  0  0
    6.1956   -1.5501   -0.8364 H   0  0  0  0  0  0  0  0  0  0  0  0
    4.3548   -3.1998   -0.5514 H   0  0  0  0  0  0  0  0  0  0  0  0
   -1.2531   -2.4148    2.2590 H   0  0  0  0  0  0  0  0  0  0  0  0
  1  2  1  0
  2  3  2  0
  3  4  1  0
  4  5  2  0
  5  6  1  0
  6  7  2  0
  7  8  1  0
  8  9  2  0
  9 10  1  0
 10 11  2  0
 11 12  1  0
 12 13  2  0
 13 14  1  0
 14 15  2  0
 15 16  1  0
 16 17  2  0
 17 18  1  0
 18 19  2  0
 19 20  1  0
 20 21  2  0
 21 22  1  0
 22 23  1  0
 23 24  2  0
 24 25  1  0
 25 26  2  0
 26 27  1  0
 27 28  2  0
 28  1  1  0
 27  3  1  0
 26  6  1  0
 12  7  1  0
 25 13  1  0
 19 14  1  0
 24 20  1  0
  1 29  1  0
  1 30  1  0
  2 31  1  0
  4 32  1  0
  5 33  1  0
  8 34  1  0
  9 35  1  0
 10 36  1  0
 11 37  1  0
 16 38  1  0
 17 39  1  0
 18 40  1  0
 28 41  1  0
M  END
