
     RDKit          3D

 38 43  0  0  0  0  0  0  0  0999 V2000
    6.0149    0.2465    0.3119 C   0  0  0  0  0  0  0  0  0  0  0  0
    5.4550    1.4833    0.1579 C   0  0  0  0  0  0  0  0  0  0  0  0
    4.0186    1.4434    0.1105 C   0  0  0  0  0  0  0  0  0  0  0  0
    3.1420    2.5242   -0.0380 C   0  0  0  0  0  0  0  0  0  0  0  0
    1.7747    2.3033   -0.0633 C   0  0  0  0  0  0  0  0  0  0  0  0
    1.2051    1.0263    0.0544 C   0  0  0  0  0  0  0  0  0  0  0  0
   -0.1964    0.9389    0.0134 C   0  0  0  0  0  0  0  0  0  0  0  0
   -0.9251    2.0728   -0.1356 N   0  0  0  0  0  0  0  0  0  0  0  0
   -2.2744    2.0263   -0.1792 C   0  0  0  0  0  0  0  0  0  0  0  0
   -3.0167    0.8700   -0.0808 C   0  0  0  0  0  0  0  0  0  0  0  0
   -2.2572   -0.2951    0.0727 C   0  0  0  0  0  0  0  0  0  0  0  0
   -0.8279   -0.3114    0.1260 C   0  0  0  0  0  0  0  0  0  0  0  0
   -0.0454   -1.5033    0.2831 C   0  0  0  0  0  0  0  0  0  0  0  0
   -0.6650   -2.7820    0.3992 C   0  0  0  0  0  0  0  0  0  0  0  0
    0.0450   -3.9672    0.5531 C   0  0  0  0  0  0  0  0  0  0  0  0
    1.4151   -3.9130    0.5966 C   0  0  0  0  0  0  0  0  0  0  0  0
    2.0538   -2.6759    0.4857 C   0  0  0  0  0  0  0  0  0  0  0  0
    1.3794   -1.4299    0.3265 C   0  0  0  0  0  0  0  0  0  0  0  0
    2.0345   -0.1288    0.2093 C   0  0  0  0  0  0  0  0  0  0  0  0
    3.4845    0.1473    0.2316 C   0  0  0  0  0  0  0  0  0  0  0  0
    4.8306   -0.9549    0.3994 S   0  0  0  0  0  0  0  0  0  0  0  0
   -4.4900    0.8969   -0.1367 C   0  0  0  0  0  0  0  0  0  0  0  0
   -5.3557    1.9737   -0.2847 C   0  0  0  0  0  0  0  0  0  0  0  0
   -6.7084    1.6898   -0.3026 N   0  0  0  0  0  0  0  0  0  0  0  0
   -6.8755    0.3957   -0.1683 C   0  0  0  0  0  0  0  0  0  0  0  0
   -5.4502   -0.5347   -0.0161 S   0  0  0  0  0  0  0  0  0  0  0  0
    7.0651   -0.0028    0.3768 H   0  0  0  0  0  0  0  0  0  0  0  0
    6.0393    2.3921    0.0806 H   0  0  0  0  0  0  0  0  0  0  0  0
    3.5239    3.5376   -0.1339 H   0  0  0  0  0  0  0  0  0  0  0  0
    1.1396    3.1826   -0.1814 H   0  0  0  0  0  0  0  0  0  0  0  0
   -2.7334    3.0027   -0.3014 H   0  0  0  0  0  0  0  0  0  0  0  0
   -2.7956   -1.2319    0.1547 H   0  0  0  0  0  0  0  0  0  0  0  0
   -1.7445   -2.8951    0.3726 H   0  0  0  0  0  0  0  0  0  0  0  0
   -0.4758   -4.9165    0.6371 H   0  0  0  0  0  0  0  0  0  0  0  0
    2.0012   -4.8203    0.7159 H   0  0  0  0  0  0  0  0  0  0  0  0
    3.1296   -2.7397    0.5313 H   0  0  0  0  0  0  0  0  0  0  0  0
   -5.0579    3.0104   -0.3863 H   0  0  0  0  0  0  0  0  0  0  0  0
   -7.8566   -0.0611   -0.1541 H   0  0  0  0  0  0  0  0  0  0  0  0
  1  2  2  0
  2  3  1  0
  3  4  2  0
  4  5  1  0
  5  6  2  0
  6  7  1  0
  7  8  2  0
  8  9  1  0
  9 10  2  0
 10 11  1  0
 11 12  2  0
 12 13  1  0
 13 14  2  0
 14 15  1  0
 15 16  2  0
 16 17  1  0
 17 18  2  0
 18 19  1  0
 19 20  2  0
 20 21  1  0
 10 22  1  0
 22 23  2  0
 23 24  1  0
 24 25  2  0
 25 26  1  0
 21  1  1  0
 26 22  1  0
 20  3  1  0
 19  6  1  0
 12  7  1  0
 18 13  1  0
  1 27  1  0
  2 28  1  0
  4 29  1  0
  5 30  1  0
  9 31  1  0
 11 32  1  0
 14 33  1  0
 15 34  1  0
 16 35  1  0
 17 36  1  0
 23 37  1  0
 25 38  1  0
M  END
