
     RDKit          3D

 43 50  0  0  0  0  0  0  0  0999 V2000
   -1.7355    3.9388   -0.0209 Si  0  0  0  0  0  4  0  0  0  0  0  0
   -0.1111    3.0287    0.0182 C   0  0  0  0  0  0  0  0  0  0  0  0
   -0.2760    1.6884   -0.0193 C   0  0  0  0  0  0  0  0  0  0  0  0
    0.8283    0.7012    0.0679 C   0  0  0  0  0  0  0  0  0  0  0  0
    2.1825    1.1057   -0.1032 C   0  0  0  0  0  0  0  0  0  0  0  0
    3.2647    0.2106   -0.1464 C   0  0  0  0  0  0  0  0  0  0  0  0
    4.6366    0.6563   -0.3267 C   0  0  0  0  0  0  0  0  0  0  0  0
    5.2249    1.2147   -1.4447 C   0  0  0  0  0  0  0  0  0  0  0  0
    6.5944    1.5465   -1.2276 C   0  0  0  0  0  0  0  0  0  0  0  0
    7.0014    1.2408    0.0517 C   0  0  0  0  0  0  0  0  0  0  0  0
    5.7372    0.5630    0.9832 S   0  0  0  0  0  0  0  0  0  0  0  0
    2.9401   -1.1681   -0.1021 C   0  0  0  0  0  0  0  0  0  0  0  0
    3.7959   -2.1983   -0.2292 N   0  0  0  0  0  0  0  0  0  0  0  0
    2.8953   -3.5817   -0.1848 S   0  0  0  0  0  0  0  0  0  0  0  0
    1.3793   -2.9477   -0.0368 N   0  0  0  0  0  0  0  0  0  0  0  0
    1.4979   -1.6123    0.0772 C   0  0  0  0  0  0  0  0  0  0  0  0
    0.4391   -0.6596    0.2625 C   0  0  0  0  0  0  0  0  0  0  0  0
   -0.9771   -1.0441    0.4568 C   0  0  0  0  0  0  0  0  0  0  0  0
   -1.3927   -2.2297    1.1344 C   0  0  0  0  0  0  0  0  0  0  0  0
   -0.6413   -3.0225    1.9195 N   0  0  0  0  0  0  0  0  0  0  0  0
   -1.5886   -4.2771    2.4216 S   0  0  0  0  0  0  0  0  0  0  0  0
   -3.0338   -3.8512    1.7385 N   0  0  0  0  0  0  0  0  0  0  0  0
   -2.8249   -2.6991    1.0745 C   0  0  0  0  0  0  0  0  0  0  0  0
   -3.8074   -1.9618    0.3438 C   0  0  0  0  0  0  0  0  0  0  0  0
   -5.1223   -2.4443    0.1921 C   0  0  0  0  0  0  0  0  0  0  0  0
   -6.0109   -1.6890   -0.5412 C   0  0  0  0  0  0  0  0  0  0  0  0
   -5.6786   -0.5250   -1.1269 N   0  0  0  0  0  0  0  0  0  0  0  0
   -4.4036   -0.0863   -0.9518 C   0  0  0  0  0  0  0  0  0  0  0  0
   -3.3986   -0.7176   -0.1979 C   0  0  0  0  0  0  0  0  0  0  0  0
   -2.0549   -0.2129    0.0040 C   0  0  0  0  0  0  0  0  0  0  0  0
   -1.6932    1.2414   -0.0981 C   0  0  0  0  0  0  0  0  0  0  0  0
   -2.5712    2.2680   -0.0341 C   0  0  0  0  0  0  0  0  0  0  0  0
   -1.9377    4.6801   -1.2879 H   0  0  0  0  0  0  0  0  0  0  0  0
   -1.9943    4.6915    1.2287 H   0  0  0  0  0  0  0  0  0  0  0  0
    0.8022    3.5933    0.1056 H   0  0  0  0  0  0  0  0  0  0  0  0
    2.4170    2.1625   -0.2240 H   0  0  0  0  0  0  0  0  0  0  0  0
    4.7020    1.3687   -2.3810 H   0  0  0  0  0  0  0  0  0  0  0  0
    7.2475    1.9842   -1.9724 H   0  0  0  0  0  0  0  0  0  0  0  0
    7.9806    1.3821    0.4880 H   0  0  0  0  0  0  0  0  0  0  0  0
   -5.4352   -3.3875    0.6287 H   0  0  0  0  0  0  0  0  0  0  0  0
   -7.0364   -2.0134   -0.6918 H   0  0  0  0  0  0  0  0  0  0  0  0
   -4.1988    0.8213   -1.5138 H   0  0  0  0  0  0  0  0  0  0  0  0
   -3.6429    2.2414    0.0704 H   0  0  0  0  0  0  0  0  0  0  0  0
  1  2  1  0
  2  3  2  0
  3  4  1  0
  4  5  1  0
  5  6  2  0
  6  7  1  0
  7  8  2  0
  8  9  1  0
  9 10  2  0
 10 11  1  0
  6 12  1  0
 12 13  2  0
 13 14  1  0
 14 15  1  0
 15 16  2  0
 16 17  1  0
 17 18  1  0
 18 19  1  0
 19 20  2  0
 20 21  1  0
 21 22  1  0
 22 23  2  0
 23 24  1  0
 24 25  2  0
 25 26  1  0
 26 27  2  0
 27 28  1  0
 28 29  2  0
 29 30  1  0
 30 31  1  0
 31 32  2  0
 32  1  1  0
 31  3  1  0
 17  4  2  0
 30 18  2  0
 11  7  1  0
 16 12  1  0
 23 19  1  0
 29 24  1  0
  1 33  1  0
  1 34  1  0
  2 35  1  0
  5 36  1  0
  8 37  1  0
  9 38  1  0
 10 39  1  0
 25 40  1  0
 26 41  1  0
 28 42  1  0
 32 43  1  0
M  END
