
     RDKit          3D

 32 37  0  0  0  0  0  0  0  0999 V2000
    6.1814   -0.9867   -0.6950 C   0  0  0  0  0  0  0  0  0  0  0  0
    6.2042    0.2531   -0.0848 C   0  0  0  0  0  0  0  0  0  0  0  0
    4.8601    0.6456    0.1480 C   0  0  0  0  0  0  0  0  0  0  0  0
    4.2032    1.7547    0.7138 C   0  0  0  0  0  0  0  0  0  0  0  0
    2.7819    1.8239    0.7897 C   0  0  0  0  0  0  0  0  0  0  0  0
    1.9327    0.7945    0.3075 C   0  0  0  0  0  0  0  0  0  0  0  0
    0.5084    0.6320    0.2693 C   0  0  0  0  0  0  0  0  0  0  0  0
   -0.8593    1.5816    0.7773 S   0  0  0  0  0  0  0  0  0  0  0  0
   -1.9622    0.3761    0.2158 C   0  0  0  0  0  0  0  0  0  0  0  0
   -1.3012   -0.7070   -0.3373 C   0  0  0  0  0  0  0  0  0  0  0  0
    0.1166   -0.5476   -0.3004 C   0  0  0  0  0  0  0  0  0  0  0  0
    1.4758   -1.5172   -0.8181 S   0  0  0  0  0  0  0  0  0  0  0  0
    2.5251   -0.3165   -0.2573 C   0  0  0  0  0  0  0  0  0  0  0  0
    4.0751   -0.3803   -0.3343 C   0  0  0  0  0  0  0  0  0  0  0  0
    4.8689   -1.3639   -0.8423 N   0  0  0  0  0  0  0  0  0  0  0  0
   -3.3934    0.5468    0.3419 C   0  0  0  0  0  0  0  0  0  0  0  0
   -4.1853    1.9341    1.0488 S   0  0  0  0  0  0  0  0  0  0  0  0
   -5.7854    1.3130    0.7897 C   0  0  0  0  0  0  0  0  0  0  0  0
   -5.6606    0.1107    0.1937 C   0  0  0  0  0  0  0  0  0  0  0  0
   -6.4635   -0.9297   -0.2954 C   0  0  0  0  0  0  0  0  0  0  0  0
   -5.5599   -1.8776   -0.7891 C   0  0  0  0  0  0  0  0  0  0  0  0
   -4.2317   -1.5205   -0.6521 O   0  0  0  0  0  0  0  0  0  0  0  0
   -4.3722   -0.3043   -0.0487 C   0  0  0  0  0  0  0  0  0  0  0  0
    6.9822   -1.6293   -1.0352 H   0  0  0  0  0  0  0  0  0  0  0  0
    7.0948    0.8143    0.1655 H   0  0  0  0  0  0  0  0  0  0  0  0
    4.7901    2.5831    1.1047 H   0  0  0  0  0  0  0  0  0  0  0  0
    2.3336    2.7092    1.2391 H   0  0  0  0  0  0  0  0  0  0  0  0
   -1.7867   -1.5805   -0.7534 H   0  0  0  0  0  0  0  0  0  0  0  0
    4.5391   -2.2254   -1.2571 H   0  0  0  0  0  0  0  0  0  0  0  0
   -6.6637    1.8671    1.0886 H   0  0  0  0  0  0  0  0  0  0  0  0
   -7.5408   -1.0121   -0.3044 H   0  0  0  0  0  0  0  0  0  0  0  0
   -5.7072   -2.8412   -1.2596 H   0  0  0  0  0  0  0  0  0  0  0  0
  1  2  2  0
  2  3  1  0
  3  4  2  0
  4  5  1  0
  5  6  2  0
  6  7  1  0
  7  8  1  0
  8  9  1  0
  9 10  2  0
 10 11  1  0
 11 12  1  0
 12 13  1  0
 13 14  2  0
 14 15  1  0
  9 16  1  0
 16 17  1  0
 17 18  1  0
 18 19  2  0
 19 20  1  0
 20 21  2  0
 21 22  1  0
 22 23  1  0
 15  1  1  0
 23 16  2  0
 14  3  1  0
 23 19  1  0
 13  6  1  0
 11  7  2  0
  1 24  1  0
  2 25  1  0
  4 26  1  0
  5 27  1  0
 10 28  1  0
 15 29  1  0
 18 30  1  0
 20 31  1  0
 21 32  1  0
M  END
