
     RDKit          3D

 31 35  0  0  0  0  0  0  0  0999 V2000
    5.5568   -0.4605    0.4199 C   0  0  0  0  0  0  0  0  0  0  0  0
    5.1796    0.6190   -0.3374 C   0  0  0  0  0  0  0  0  0  0  0  0
    3.7538    0.7556   -0.4448 C   0  0  0  0  0  0  0  0  0  0  0  0
    2.9995    1.7323   -1.1329 C   0  0  0  0  0  0  0  0  0  0  0  0
    1.6031    1.7008   -1.1227 C   0  0  0  0  0  0  0  0  0  0  0  0
    0.9087    0.7091   -0.4368 C   0  0  0  0  0  0  0  0  0  0  0  0
   -0.5102    0.7234   -0.4591 C   0  0  0  0  0  0  0  0  0  0  0  0
   -1.3418   -0.2176    0.1950 C   0  0  0  0  0  0  0  0  0  0  0  0
   -2.8053   -0.1574    0.1349 C   0  0  0  0  0  0  0  0  0  0  0  0
   -3.4840   -0.0028   -1.0823 C   0  0  0  0  0  0  0  0  0  0  0  0
   -4.8759    0.0726   -1.1126 C   0  0  0  0  0  0  0  0  0  0  0  0
   -5.5635   -0.0031    0.0853 C   0  0  0  0  0  0  0  0  0  0  0  0
   -4.9611   -0.1473    1.2821 N   0  0  0  0  0  0  0  0  0  0  0  0
   -3.6065   -0.2279    1.2769 C   0  0  0  0  0  0  0  0  0  0  0  0
   -0.6485   -1.2340    0.9135 C   0  0  0  0  0  0  0  0  0  0  0  0
   -1.2132   -2.2403    1.6050 N   0  0  0  0  0  0  0  0  0  0  0  0
    0.0133   -3.1435    2.2435 S   0  0  0  0  0  0  0  0  0  0  0  0
    1.3228   -2.3117    1.6816 N   0  0  0  0  0  0  0  0  0  0  0  0
    0.8718   -1.2747    0.9528 C   0  0  0  0  0  0  0  0  0  0  0  0
    1.6488   -0.2888    0.2679 C   0  0  0  0  0  0  0  0  0  0  0  0
    3.0707   -0.2524    0.2538 C   0  0  0  0  0  0  0  0  0  0  0  0
    4.2140   -1.3182    1.0079 S   0  0  0  0  0  0  0  0  0  0  0  0
    6.5603   -0.7867    0.6563 H   0  0  0  0  0  0  0  0  0  0  0  0
    5.8913    1.2913   -0.8008 H   0  0  0  0  0  0  0  0  0  0  0  0
    3.5114    2.5220   -1.6791 H   0  0  0  0  0  0  0  0  0  0  0  0
    1.0707    2.4784   -1.6689 H   0  0  0  0  0  0  0  0  0  0  0  0
   -1.0054    1.5274   -1.0102 H   0  0  0  0  0  0  0  0  0  0  0  0
   -2.9350    0.0455   -2.0199 H   0  0  0  0  0  0  0  0  0  0  0  0
   -5.4096    0.1843   -2.0496 H   0  0  0  0  0  0  0  0  0  0  0  0
   -6.6479    0.0503    0.1150 H   0  0  0  0  0  0  0  0  0  0  0  0
   -3.1687   -0.3450    2.2658 H   0  0  0  0  0  0  0  0  0  0  0  0
  1  2  2  0
  2  3  1  0
  3  4  2  0
  4  5  1  0
  5  6  2  0
  6  7  1  0
  7  8  2  0
  8  9  1  0
  9 10  2  0
 10 11  1  0
 11 12  2  0
 12 13  1  0
 13 14  2  0
  8 15  1  0
 15 16  2  0
 16 17  1  0
 17 18  1  0
 18 19  2  0
 19 20  1  0
 20 21  2  0
 21 22  1  0
 22  1  1  0
 21  3  1  0
 20  6  1  0
 14  9  1  0
 19 15  1  0
  1 23  1  0
  2 24  1  0
  4 25  1  0
  5 26  1  0
  7 27  1  0
 10 28  1  0
 11 29  1  0
 12 30  1  0
 14 31  1  0
M  END
