
     RDKit          3D

 48 54  0  0  0  0  0  0  0  0999 V2000
   -6.8123   -1.7831    0.6710 C   0  0  0  0  0  0  0  0  0  0  0  0
   -7.4985   -0.4653    0.4512 C   0  0  0  0  0  0  0  0  0  0  0  0
   -6.6107    0.4160   -0.0267 C   0  0  0  0  0  0  0  0  0  0  0  0
   -6.7881    1.8034   -0.3662 C   0  0  0  0  0  0  0  0  0  0  0  0
   -5.7106    2.4810   -0.8056 C   0  0  0  0  0  0  0  0  0  0  0  0
   -4.3958    1.8465   -0.9515 C   0  0  0  0  0  0  0  0  0  0  0  0
   -4.1536    0.5390   -0.6722 C   0  0  0  0  0  0  0  0  0  0  0  0
   -2.8188    0.0026   -0.8555 C   0  0  0  0  0  0  0  0  0  0  0  0
   -1.5656    0.6876   -0.3625 C   0  0  0  0  0  0  0  0  0  0  0  0
   -0.4770   -0.2802   -0.7795 C   0  0  0  0  0  0  0  0  0  0  0  0
   -1.0514   -1.3142   -1.4233 C   0  0  0  0  0  0  0  0  0  0  0  0
   -2.4805   -1.1415   -1.4697 C   0  0  0  0  0  0  0  0  0  0  0  0
    0.9551   -0.0919   -0.5110 C   0  0  0  0  0  0  0  0  0  0  0  0
    1.9267   -1.0816   -0.7986 C   0  0  0  0  0  0  0  0  0  0  0  0
    3.3117   -0.9338   -0.5520 C   0  0  0  0  0  0  0  0  0  0  0  0
    3.8749    0.2280    0.0049 C   0  0  0  0  0  0  0  0  0  0  0  0
    5.2994    0.3471    0.2557 C   0  0  0  0  0  0  0  0  0  0  0  0
    6.2518    1.6043   -0.4870 S   0  0  0  0  0  0  0  0  0  0  0  0
    7.7399    1.0629    0.2289 C   0  0  0  0  0  0  0  0  0  0  0  0
    7.4675   -0.0317    0.9664 C   0  0  0  0  0  0  0  0  0  0  0  0
    8.3532   -0.7774    1.6873 N   0  0  0  0  0  0  0  0  0  0  0  0
    7.5133   -1.7560    2.2173 C   0  0  0  0  0  0  0  0  0  0  0  0
    6.1744   -1.5697    1.8095 C   0  0  0  0  0  0  0  0  0  0  0  0
    6.1476   -0.4210    0.9764 C   0  0  0  0  0  0  0  0  0  0  0  0
    2.9657    1.2692    0.3422 C   0  0  0  0  0  0  0  0  0  0  0  0
    3.2647    2.4495    0.9150 N   0  0  0  0  0  0  0  0  0  0  0  0
    1.8501    3.2835    1.0837 S   0  0  0  0  0  0  0  0  0  0  0  0
    0.7759    2.1968    0.4554 N   0  0  0  0  0  0  0  0  0  0  0  0
    1.4713    1.1084    0.0760 C   0  0  0  0  0  0  0  0  0  0  0  0
   -5.3030   -0.2211   -0.1715 C   0  0  0  0  0  0  0  0  0  0  0  0
   -5.4011   -1.4957    0.2399 C   0  0  0  0  0  0  0  0  0  0  0  0
   -7.2598   -2.5684    0.0547 H   0  0  0  0  0  0  0  0  0  0  0  0
   -6.8493   -2.0745    1.7248 H   0  0  0  0  0  0  0  0  0  0  0  0
   -8.5385   -0.2727    0.6627 H   0  0  0  0  0  0  0  0  0  0  0  0
   -7.7588    2.2714   -0.2593 H   0  0  0  0  0  0  0  0  0  0  0  0
   -5.7887    3.5304   -1.0724 H   0  0  0  0  0  0  0  0  0  0  0  0
   -3.6103    2.4954   -1.3297 H   0  0  0  0  0  0  0  0  0  0  0  0
   -1.5991    0.8080    0.7257 H   0  0  0  0  0  0  0  0  0  0  0  0
   -1.4387    1.6574   -0.8545 H   0  0  0  0  0  0  0  0  0  0  0  0
   -0.5656   -2.1745   -1.8570 H   0  0  0  0  0  0  0  0  0  0  0  0
   -3.1562   -1.8422   -1.9369 H   0  0  0  0  0  0  0  0  0  0  0  0
    1.6117   -2.0294   -1.2353 H   0  0  0  0  0  0  0  0  0  0  0  0
    3.9698   -1.7630   -0.8168 H   0  0  0  0  0  0  0  0  0  0  0  0
    8.6808    1.5668    0.0605 H   0  0  0  0  0  0  0  0  0  0  0  0
    9.3499   -0.6336    1.7933 H   0  0  0  0  0  0  0  0  0  0  0  0
    7.9381   -2.5185    2.8578 H   0  0  0  0  0  0  0  0  0  0  0  0
    5.3404   -2.1956    2.0978 H   0  0  0  0  0  0  0  0  0  0  0  0
   -4.6017   -2.2189    0.2742 H   0  0  0  0  0  0  0  0  0  0  0  0
  1  2  1  0
  2  3  2  0
  3  4  1  0
  4  5  2  0
  5  6  1  0
  6  7  2  0
  7  8  1  0
  8  9  1  0
  9 10  1  0
 10 11  2  0
 11 12  1  0
 10 13  1  0
 13 14  2  0
 14 15  1  0
 15 16  2  0
 16 17  1  0
 17 18  1  0
 18 19  1  0
 19 20  2  0
 20 21  1  0
 21 22  1  0
 22 23  2  0
 23 24  1  0
 16 25  1  0
 25 26  2  0
 26 27  1  0
 27 28  1  0
 28 29  2  0
  7 30  1  0
 30 31  2  0
 31  1  1  0
 30  3  1  0
 12  8  2  0
 29 13  1  0
 24 17  2  0
 29 25  1  0
 24 20  1  0
  1 32  1  0
  1 33  1  0
  2 34  1  0
  4 35  1  0
  5 36  1  0
  6 37  1  0
  9 38  1  0
  9 39  1  0
 11 40  1  0
 12 41  1  0
 14 42  1  0
 15 43  1  0
 19 44  1  0
 21 45  1  0
 22 46  1  0
 23 47  1  0
 31 48  1  0
M  END
