
     RDKit          3D

 50 55  0  0  0  0  0  0  0  0999 V2000
   -5.8912    2.6074    1.0811 C   0  0  0  0  0  0  0  0  0  0  0  0
   -6.9671    1.5812    0.8537 C   0  0  0  0  0  0  0  0  0  0  0  0
   -6.3964    0.4074    0.5537 C   0  0  0  0  0  0  0  0  0  0  0  0
   -7.0005   -0.8679    0.2602 C   0  0  0  0  0  0  0  0  0  0  0  0
   -6.1819   -1.9056   -0.0057 C   0  0  0  0  0  0  0  0  0  0  0  0
   -4.7203   -1.7676   -0.0042 C   0  0  0  0  0  0  0  0  0  0  0  0
   -4.0936   -0.5932    0.2543 C   0  0  0  0  0  0  0  0  0  0  0  0
   -2.6345   -0.5642    0.2399 C   0  0  0  0  0  0  0  0  0  0  0  0
   -1.8017   -1.0975    1.2516 C   0  0  0  0  0  0  0  0  0  0  0  0
   -0.3646   -1.0458    1.2161 C   0  0  0  0  0  0  0  0  0  0  0  0
    0.3977   -0.4518    0.1719 C   0  0  0  0  0  0  0  0  0  0  0  0
    1.8540   -0.3986    0.1480 C   0  0  0  0  0  0  0  0  0  0  0  0
    2.6146   -1.5766    0.1652 C   0  0  0  0  0  0  0  0  0  0  0  0
    4.0131   -1.5318    0.1551 C   0  0  0  0  0  0  0  0  0  0  0  0
    4.6861   -0.3055    0.1261 C   0  0  0  0  0  0  0  0  0  0  0  0
    3.9353    0.8746    0.1242 C   0  0  0  0  0  0  0  0  0  0  0  0
    2.5367    0.8266    0.1344 C   0  0  0  0  0  0  0  0  0  0  0  0
    6.1439   -0.2739    0.1199 C   0  0  0  0  0  0  0  0  0  0  0  0
    7.1395    0.4727   -1.3048 Si  0  0  0  0  0  4  0  0  0  0  0  0
    8.6930   -0.0054   -0.3536 C   0  0  0  0  0  0  0  0  0  0  0  0
    8.3870   -0.6135    0.8069 C   0  0  0  0  0  0  0  0  0  0  0  0
    6.9644   -0.7674    1.0712 C   0  0  0  0  0  0  0  0  0  0  0  0
   -0.4490    0.0666   -0.8196 C   0  0  0  0  0  0  0  0  0  0  0  0
   -0.0875    0.6798   -1.9959 C   0  0  0  0  0  0  0  0  0  0  0  0
   -1.2476    1.0102   -2.6625 N   0  0  0  0  0  0  0  0  0  0  0  0
   -2.3460    0.6071   -1.9366 C   0  0  0  0  0  0  0  0  0  0  0  0
   -1.8811    0.0139   -0.7874 C   0  0  0  0  0  0  0  0  0  0  0  0
   -4.9434    0.5512    0.5539 C   0  0  0  0  0  0  0  0  0  0  0  0
   -4.6303    1.8194    0.8598 C   0  0  0  0  0  0  0  0  0  0  0  0
   -5.9340    3.0025    2.1003 H   0  0  0  0  0  0  0  0  0  0  0  0
   -5.9729    3.4284    0.3627 H   0  0  0  0  0  0  0  0  0  0  0  0
   -8.0253    1.7760    0.9281 H   0  0  0  0  0  0  0  0  0  0  0  0
   -8.0786   -0.9707    0.2589 H   0  0  0  0  0  0  0  0  0  0  0  0
   -6.5880   -2.8863   -0.2328 H   0  0  0  0  0  0  0  0  0  0  0  0
   -4.1540   -2.6667   -0.2337 H   0  0  0  0  0  0  0  0  0  0  0  0
   -2.2705   -1.5700    2.1154 H   0  0  0  0  0  0  0  0  0  0  0  0
    0.1702   -1.4838    2.0605 H   0  0  0  0  0  0  0  0  0  0  0  0
    2.1188   -2.5452    0.1767 H   0  0  0  0  0  0  0  0  0  0  0  0
    4.5714   -2.4654    0.1620 H   0  0  0  0  0  0  0  0  0  0  0  0
    4.4258    1.8453    0.1316 H   0  0  0  0  0  0  0  0  0  0  0  0
    1.9766    1.7599    0.1437 H   0  0  0  0  0  0  0  0  0  0  0  0
    7.0137   -0.2902   -2.5720 H   0  0  0  0  0  0  0  0  0  0  0  0
    6.9837    1.9463   -1.4058 H   0  0  0  0  0  0  0  0  0  0  0  0
    9.6781    0.2061   -0.7378 H   0  0  0  0  0  0  0  0  0  0  0  0
    9.1253   -0.9726    1.5133 H   0  0  0  0  0  0  0  0  0  0  0  0
    6.6215   -1.2452    1.9811 H   0  0  0  0  0  0  0  0  0  0  0  0
    0.8767    0.9078   -2.4297 H   0  0  0  0  0  0  0  0  0  0  0  0
   -1.2870    1.4714   -3.5620 H   0  0  0  0  0  0  0  0  0  0  0  0
   -3.3471    0.7753   -2.3111 H   0  0  0  0  0  0  0  0  0  0  0  0
   -3.6331    2.2250    0.9368 H   0  0  0  0  0  0  0  0  0  0  0  0
  1  2  1  0
  2  3  2  0
  3  4  1  0
  4  5  2  0
  5  6  1  0
  6  7  2  0
  7  8  1  0
  8  9  2  0
  9 10  1  0
 10 11  2  0
 11 12  1  0
 12 13  2  0
 13 14  1  0
 14 15  2  0
 15 16  1  0
 16 17  2  0
 15 18  1  0
 18 19  1  0
 19 20  1  0
 20 21  2  0
 21 22  1  0
 11 23  1  0
 23 24  2  0
 24 25  1  0
 25 26  1  0
 26 27  2  0
  7 28  1  0
 28 29  2  0
 29  1  1  0
 28  3  1  0
 27  8  1  0
 17 12  1  0
 22 18  2  0
 27 23  1  0
  1 30  1  0
  1 31  1  0
  2 32  1  0
  4 33  1  0
  5 34  1  0
  6 35  1  0
  9 36  1  0
 10 37  1  0
 13 38  1  0
 14 39  1  0
 16 40  1  0
 17 41  1  0
 19 42  1  0
 19 43  1  0
 20 44  1  0
 21 45  1  0
 22 46  1  0
 24 47  1  0
 25 48  1  0
 26 49  1  0
 29 50  1  0
M  END
