
     RDKit          3D

 49 54  0  0  0  0  0  0  0  0999 V2000
   -6.1926    2.2071    0.4886 C   0  0  0  0  0  0  0  0  0  0  0  0
   -7.1749    1.1258    0.1320 C   0  0  0  0  0  0  0  0  0  0  0  0
   -6.5057   -0.0008   -0.1442 C   0  0  0  0  0  0  0  0  0  0  0  0
   -6.9991   -1.3000   -0.5258 C   0  0  0  0  0  0  0  0  0  0  0  0
   -6.0962   -2.2780   -0.7395 C   0  0  0  0  0  0  0  0  0  0  0  0
   -4.6525   -2.0525   -0.5987 C   0  0  0  0  0  0  0  0  0  0  0  0
   -4.1269   -0.8513   -0.2524 C   0  0  0  0  0  0  0  0  0  0  0  0
   -2.6772   -0.7327   -0.1411 C   0  0  0  0  0  0  0  0  0  0  0  0
   -1.8839   -1.2964    0.8866 C   0  0  0  0  0  0  0  0  0  0  0  0
   -0.4530   -1.1505    0.9692 C   0  0  0  0  0  0  0  0  0  0  0  0
    0.3416   -0.4224    0.0399 C   0  0  0  0  0  0  0  0  0  0  0  0
    1.7873   -0.2713    0.1283 C   0  0  0  0  0  0  0  0  0  0  0  0
    2.3825    0.9919    0.2414 C   0  0  0  0  0  0  0  0  0  0  0  0
    3.7744    1.1313    0.3365 C   0  0  0  0  0  0  0  0  0  0  0  0
    4.6255    0.0134    0.3216 C   0  0  0  0  0  0  0  0  0  0  0  0
    4.0171   -1.2500    0.2238 C   0  0  0  0  0  0  0  0  0  0  0  0
    2.6266   -1.3914    0.1288 C   0  0  0  0  0  0  0  0  0  0  0  0
    6.0962    0.1378    0.4160 C   0  0  0  0  0  0  0  0  0  0  0  0
    6.8008    1.2311   -0.0910 C   0  0  0  0  0  0  0  0  0  0  0  0
    8.1884    1.2729    0.0391 C   0  0  0  0  0  0  0  0  0  0  0  0
    8.8446    0.2251    0.6687 C   0  0  0  0  0  0  0  0  0  0  0  0
    8.0823   -0.8279    1.1391 C   0  0  0  0  0  0  0  0  0  0  0  0
    6.7376   -0.8946    1.0239 N   0  0  0  0  0  0  0  0  0  0  0  0
   -0.4678    0.1190   -0.9664 C   0  0  0  0  0  0  0  0  0  0  0  0
   -0.0894    0.8502   -2.0639 C   0  0  0  0  0  0  0  0  0  0  0  0
   -1.1901    1.1770   -2.8071 O   0  0  0  0  0  0  0  0  0  0  0  0
   -2.2819    0.6364   -2.1860 C   0  0  0  0  0  0  0  0  0  0  0  0
   -1.8885   -0.0262   -1.0516 C   0  0  0  0  0  0  0  0  0  0  0  0
   -5.0709    0.2302   -0.0030 C   0  0  0  0  0  0  0  0  0  0  0  0
   -4.8687    1.5039    0.3671 C   0  0  0  0  0  0  0  0  0  0  0  0
   -6.2584    3.0449   -0.2117 H   0  0  0  0  0  0  0  0  0  0  0  0
   -6.3552    2.5649    1.5095 H   0  0  0  0  0  0  0  0  0  0  0  0
   -8.2458    1.2535    0.1114 H   0  0  0  0  0  0  0  0  0  0  0  0
   -8.0640   -1.4673   -0.6307 H   0  0  0  0  0  0  0  0  0  0  0  0
   -6.4182   -3.2737   -1.0285 H   0  0  0  0  0  0  0  0  0  0  0  0
   -4.0145   -2.9093   -0.8008 H   0  0  0  0  0  0  0  0  0  0  0  0
   -2.3793   -1.8701    1.6713 H   0  0  0  0  0  0  0  0  0  0  0  0
    0.0473   -1.6250    1.8159 H   0  0  0  0  0  0  0  0  0  0  0  0
    1.7626    1.8862    0.2740 H   0  0  0  0  0  0  0  0  0  0  0  0
    4.1799    2.1345    0.4468 H   0  0  0  0  0  0  0  0  0  0  0  0
    4.6357   -2.1468    0.2185 H   0  0  0  0  0  0  0  0  0  0  0  0
    2.2071   -2.3923    0.0474 H   0  0  0  0  0  0  0  0  0  0  0  0
    6.2903    2.0414   -0.6002 H   0  0  0  0  0  0  0  0  0  0  0  0
    8.7495    2.1163   -0.3529 H   0  0  0  0  0  0  0  0  0  0  0  0
    9.9221    0.2261    0.7866 H   0  0  0  0  0  0  0  0  0  0  0  0
    8.5447   -1.6752    1.6372 H   0  0  0  0  0  0  0  0  0  0  0  0
    0.8538    1.2052   -2.4545 H   0  0  0  0  0  0  0  0  0  0  0  0
   -3.2300    0.8100   -2.6757 H   0  0  0  0  0  0  0  0  0  0  0  0
   -3.9132    1.9696    0.5537 H   0  0  0  0  0  0  0  0  0  0  0  0
  1  2  1  0
  2  3  2  0
  3  4  1  0
  4  5  2  0
  5  6  1  0
  6  7  2  0
  7  8  1  0
  8  9  2  0
  9 10  1  0
 10 11  2  0
 11 12  1  0
 12 13  2  0
 13 14  1  0
 14 15  2  0
 15 16  1  0
 16 17  2  0
 15 18  1  0
 18 19  2  0
 19 20  1  0
 20 21  2  0
 21 22  1  0
 22 23  2  0
 11 24  1  0
 24 25  2  0
 25 26  1  0
 26 27  1  0
 27 28  2  0
  7 29  1  0
 29 30  2  0
 30  1  1  0
 29  3  1  0
 28  8  1  0
 17 12  1  0
 23 18  1  0
 28 24  1  0
  1 31  1  0
  1 32  1  0
  2 33  1  0
  4 34  1  0
  5 35  1  0
  6 36  1  0
  9 37  1  0
 10 38  1  0
 13 39  1  0
 14 40  1  0
 16 41  1  0
 17 42  1  0
 19 43  1  0
 20 44  1  0
 21 45  1  0
 22 46  1  0
 25 47  1  0
 27 48  1  0
 30 49  1  0
M  END
