
     RDKit          3D

 49 56  0  0  0  0  0  0  0  0999 V2000
    0.1760    4.4495    1.8181 Si  0  0  0  0  0  4  0  0  0  0  0  0
    1.3461    3.1539    1.1790 C   0  0  0  0  0  0  0  0  0  0  0  0
    0.6915    2.0687    0.7116 C   0  0  0  0  0  0  0  0  0  0  0  0
    1.3405    0.8670    0.1345 C   0  0  0  0  0  0  0  0  0  0  0  0
    2.7278    0.8975   -0.2540 C   0  0  0  0  0  0  0  0  0  0  0  0
    3.3823   -0.1156   -0.9934 C   0  0  0  0  0  0  0  0  0  0  0  0
    4.7905   -0.0889   -1.3774 C   0  0  0  0  0  0  0  0  0  0  0  0
    5.5975   -1.1328   -1.3728 N   0  0  0  0  0  0  0  0  0  0  0  0
    6.8593   -0.7654   -1.7948 C   0  0  0  0  0  0  0  0  0  0  0  0
    7.0105    0.5612   -2.1277 C   0  0  0  0  0  0  0  0  0  0  0  0
    5.5256    1.3828   -1.9053 S   0  0  0  0  0  0  0  0  0  0  0  0
    2.4899   -1.1288   -1.3783 C   0  0  0  0  0  0  0  0  0  0  0  0
    2.8262   -2.1683   -2.2179 C   0  0  0  0  0  0  0  0  0  0  0  0
    1.4736   -3.1401   -2.6116 S   0  0  0  0  0  0  0  0  0  0  0  0
    0.4243   -2.1713   -1.6645 C   0  0  0  0  0  0  0  0  0  0  0  0
    1.0903   -1.1776   -0.9776 C   0  0  0  0  0  0  0  0  0  0  0  0
    0.4712   -0.2443   -0.1051 C   0  0  0  0  0  0  0  0  0  0  0  0
   -0.9443   -0.2826    0.3749 C   0  0  0  0  0  0  0  0  0  0  0  0
   -1.6336   -1.4974    0.7041 C   0  0  0  0  0  0  0  0  0  0  0  0
   -0.9572   -2.6967    1.0494 C   0  0  0  0  0  0  0  0  0  0  0  0
   -1.6279   -3.8888    1.3229 C   0  0  0  0  0  0  0  0  0  0  0  0
   -3.0093   -3.9185    1.2781 C   0  0  0  0  0  0  0  0  0  0  0  0
   -3.7113   -2.7488    0.9924 C   0  0  0  0  0  0  0  0  0  0  0  0
   -3.0519   -1.5216    0.7305 C   0  0  0  0  0  0  0  0  0  0  0  0
   -3.7412   -0.3151    0.4936 C   0  0  0  0  0  0  0  0  0  0  0  0
   -5.2139   -0.1852    0.3501 C   0  0  0  0  0  0  0  0  0  0  0  0
   -5.6562    1.0661    0.1500 C   0  0  0  0  0  0  0  0  0  0  0  0
   -4.2817    2.3120    0.1289 Si  0  0  0  0  0  4  0  0  0  0  0  0
   -3.0353    0.9211    0.4217 C   0  0  0  0  0  0  0  0  0  0  0  0
   -1.6386    0.9528    0.5003 C   0  0  0  0  0  0  0  0  0  0  0  0
   -0.7921    2.1444    0.8108 C   0  0  0  0  0  0  0  0  0  0  0  0
   -1.2197    3.2820    1.4021 C   0  0  0  0  0  0  0  0  0  0  0  0
    0.3133    4.6744    3.2767 H   0  0  0  0  0  0  0  0  0  0  0  0
    0.1619    5.6697    0.9763 H   0  0  0  0  0  0  0  0  0  0  0  0
    2.4072    3.3301    1.2285 H   0  0  0  0  0  0  0  0  0  0  0  0
    3.3187    1.7698    0.0193 H   0  0  0  0  0  0  0  0  0  0  0  0
    7.6404   -1.5145   -1.8423 H   0  0  0  0  0  0  0  0  0  0  0  0
    7.8952    1.0706   -2.4808 H   0  0  0  0  0  0  0  0  0  0  0  0
    3.7852   -2.4065   -2.6581 H   0  0  0  0  0  0  0  0  0  0  0  0
   -0.6298   -2.4096   -1.6743 H   0  0  0  0  0  0  0  0  0  0  0  0
    0.1291   -2.7093    1.1285 H   0  0  0  0  0  0  0  0  0  0  0  0
   -1.0656   -4.7846    1.5725 H   0  0  0  0  0  0  0  0  0  0  0  0
   -3.5454   -4.8402    1.4868 H   0  0  0  0  0  0  0  0  0  0  0  0
   -4.7961   -2.8068    1.0039 H   0  0  0  0  0  0  0  0  0  0  0  0
   -5.8759   -1.0387    0.3850 H   0  0  0  0  0  0  0  0  0  0  0  0
   -6.6853    1.3611    0.0138 H   0  0  0  0  0  0  0  0  0  0  0  0
   -4.1364    2.9542   -1.2013 H   0  0  0  0  0  0  0  0  0  0  0  0
   -4.4188    3.2557    1.2678 H   0  0  0  0  0  0  0  0  0  0  0  0
   -2.2068    3.5533    1.7252 H   0  0  0  0  0  0  0  0  0  0  0  0
  1  2  1  0
  2  3  2  0
  3  4  1  0
  4  5  1  0
  5  6  2  0
  6  7  1  0
  7  8  2  0
  8  9  1  0
  9 10  2  0
 10 11  1  0
  6 12  1  0
 12 13  2  0
 13 14  1  0
 14 15  1  0
 15 16  2  0
 16 17  1  0
 17 18  1  0
 18 19  2  0
 19 20  1  0
 20 21  2  0
 21 22  1  0
 22 23  2  0
 23 24  1  0
 24 25  2  0
 25 26  1  0
 26 27  2  0
 27 28  1  0
 28 29  1  0
 29 30  2  0
 30 31  1  0
 31 32  2  0
 32  1  1  0
 31  3  1  0
 17  4  2  0
 30 18  1  0
 11  7  1  0
 16 12  1  0
 24 19  1  0
 29 25  1  0
  1 33  1  0
  1 34  1  0
  2 35  1  0
  5 36  1  0
  9 37  1  0
 10 38  1  0
 13 39  1  0
 15 40  1  0
 20 41  1  0
 21 42  1  0
 22 43  1  0
 23 44  1  0
 26 45  1  0
 27 46  1  0
 28 47  1  0
 28 48  1  0
 32 49  1  0
M  END
