
     RDKit          3D

 46 51  0  0  0  0  0  0  0  0999 V2000
    5.8279    1.9036   -0.8341 C   0  0  0  0  0  0  0  0  0  0  0  0
    6.6249    1.0192    0.0846 C   0  0  0  0  0  0  0  0  0  0  0  0
    5.7997    0.1483    0.6795 C   0  0  0  0  0  0  0  0  0  0  0  0
    6.0843   -0.8870    1.6409 C   0  0  0  0  0  0  0  0  0  0  0  0
    5.0520   -1.6270    2.0927 C   0  0  0  0  0  0  0  0  0  0  0  0
    3.6747   -1.4085    1.6340 C   0  0  0  0  0  0  0  0  0  0  0  0
    3.3453   -0.4579    0.7247 C   0  0  0  0  0  0  0  0  0  0  0  0
    1.9460   -0.3238    0.3344 C   0  0  0  0  0  0  0  0  0  0  0  0
    0.9153    0.2002    1.1495 C   0  0  0  0  0  0  0  0  0  0  0  0
   -0.4551    0.3253    0.7275 C   0  0  0  0  0  0  0  0  0  0  0  0
   -0.9422   -0.0529   -0.5533 C   0  0  0  0  0  0  0  0  0  0  0  0
   -2.3171    0.0946   -0.9728 C   0  0  0  0  0  0  0  0  0  0  0  0
   -2.9653    0.2790   -2.1722 C   0  0  0  0  0  0  0  0  0  0  0  0
   -4.3478    0.3532   -1.8735 C   0  0  0  0  0  0  0  0  0  0  0  0
   -4.4996    0.2191   -0.4986 C   0  0  0  0  0  0  0  0  0  0  0  0
   -3.2374    0.0687    0.0331 O   0  0  0  0  0  0  0  0  0  0  0  0
   -5.6592    0.2222    0.3214 C   0  0  0  0  0  0  0  0  0  0  0  0
   -5.7337    0.0609    1.8226 C   0  0  0  0  0  0  0  0  0  0  0  0
   -7.2099    0.1524    2.0819 C   0  0  0  0  0  0  0  0  0  0  0  0
   -7.8592    0.3341    0.9246 C   0  0  0  0  0  0  0  0  0  0  0  0
   -6.9075    0.3770   -0.1570 C   0  0  0  0  0  0  0  0  0  0  0  0
    0.0902   -0.5760   -1.3407 C   0  0  0  0  0  0  0  0  0  0  0  0
    0.0392   -1.0989   -2.6085 C   0  0  0  0  0  0  0  0  0  0  0  0
    1.2838   -1.5130   -2.9960 O   0  0  0  0  0  0  0  0  0  0  0  0
    2.1403   -1.2707   -1.9598 C   0  0  0  0  0  0  0  0  0  0  0  0
    1.4548   -0.7016   -0.9177 C   0  0  0  0  0  0  0  0  0  0  0  0
    4.4321    0.3704    0.2189 C   0  0  0  0  0  0  0  0  0  0  0  0
    4.4267    1.3868   -0.6570 C   0  0  0  0  0  0  0  0  0  0  0  0
    6.1592    1.7940   -1.8709 H   0  0  0  0  0  0  0  0  0  0  0  0
    5.9011    2.9524   -0.5315 H   0  0  0  0  0  0  0  0  0  0  0  0
    7.6909    1.0919    0.2325 H   0  0  0  0  0  0  0  0  0  0  0  0
    7.1002   -1.0495    1.9795 H   0  0  0  0  0  0  0  0  0  0  0  0
    5.2151   -2.4184    2.8177 H   0  0  0  0  0  0  0  0  0  0  0  0
    2.9209   -2.0665    2.0594 H   0  0  0  0  0  0  0  0  0  0  0  0
    1.1670    0.5378    2.1560 H   0  0  0  0  0  0  0  0  0  0  0  0
   -1.1605    0.7499    1.4446 H   0  0  0  0  0  0  0  0  0  0  0  0
   -2.5090    0.3682   -3.1469 H   0  0  0  0  0  0  0  0  0  0  0  0
   -5.1494    0.4961   -2.5846 H   0  0  0  0  0  0  0  0  0  0  0  0
   -5.3407   -0.9104    2.1389 H   0  0  0  0  0  0  0  0  0  0  0  0
   -5.1961    0.8639    2.3367 H   0  0  0  0  0  0  0  0  0  0  0  0
   -7.6659    0.0806    3.0576 H   0  0  0  0  0  0  0  0  0  0  0  0
   -8.9268    0.4347    0.7991 H   0  0  0  0  0  0  0  0  0  0  0  0
   -7.2013    0.5154   -1.1864 H   0  0  0  0  0  0  0  0  0  0  0  0
   -0.7384   -1.2609   -3.3403 H   0  0  0  0  0  0  0  0  0  0  0  0
    3.1681   -1.5632   -2.1255 H   0  0  0  0  0  0  0  0  0  0  0  0
    3.5625    1.7864   -1.1650 H   0  0  0  0  0  0  0  0  0  0  0  0
  1  2  1  0
  2  3  2  0
  3  4  1  0
  4  5  2  0
  5  6  1  0
  6  7  2  0
  7  8  1  0
  8  9  2  0
  9 10  1  0
 10 11  2  0
 11 12  1  0
 12 13  2  0
 13 14  1  0
 14 15  2  0
 15 16  1  0
 15 17  1  0
 17 18  1  0
 18 19  1  0
 19 20  2  0
 20 21  1  0
 11 22  1  0
 22 23  2  0
 23 24  1  0
 24 25  1  0
 25 26  2  0
  7 27  1  0
 27 28  2  0
 28  1  1  0
 27  3  1  0
 26  8  1  0
 16 12  1  0
 21 17  2  0
 26 22  1  0
  1 29  1  0
  1 30  1  0
  2 31  1  0
  4 32  1  0
  5 33  1  0
  6 34  1  0
  9 35  1  0
 10 36  1  0
 13 37  1  0
 14 38  1  0
 18 39  1  0
 18 40  1  0
 19 41  1  0
 20 42  1  0
 21 43  1  0
 23 44  1  0
 25 45  1  0
 28 46  1  0
M  END
