
     RDKit          3D

 46 52  0  0  0  0  0  0  0  0999 V2000
    6.6073   -1.6633   -0.7512 C   0  0  0  0  0  0  0  0  0  0  0  0
    7.4542   -0.5762   -0.1492 C   0  0  0  0  0  0  0  0  0  0  0  0
    6.6573    0.3984    0.3073 C   0  0  0  0  0  0  0  0  0  0  0  0
    6.9938    1.6409    0.9551 C   0  0  0  0  0  0  0  0  0  0  0  0
    5.9829    2.4572    1.3144 C   0  0  0  0  0  0  0  0  0  0  0  0
    4.5769    2.1139    1.0692 C   0  0  0  0  0  0  0  0  0  0  0  0
    4.1968    0.9604    0.4649 C   0  0  0  0  0  0  0  0  0  0  0  0
    2.7641    0.6987    0.2756 C   0  0  0  0  0  0  0  0  0  0  0  0
    2.0066    1.4110   -0.6512 C   0  0  0  0  0  0  0  0  0  0  0  0
    0.6501    1.1185   -0.8038 C   0  0  0  0  0  0  0  0  0  0  0  0
    0.0651    0.1095   -0.0331 C   0  0  0  0  0  0  0  0  0  0  0  0
    0.7929   -0.5821    0.8794 N   0  0  0  0  0  0  0  0  0  0  0  0
    2.1088   -0.2822    1.0086 C   0  0  0  0  0  0  0  0  0  0  0  0
   -1.3618   -0.2130   -0.1555 C   0  0  0  0  0  0  0  0  0  0  0  0
   -2.2159    0.7675   -0.6324 N   0  0  0  0  0  0  0  0  0  0  0  0
   -3.5622    0.5531   -0.7598 C   0  0  0  0  0  0  0  0  0  0  0  0
   -4.2606   -0.6150   -0.4661 C   0  0  0  0  0  0  0  0  0  0  0  0
   -5.6942   -0.7489   -0.6146 C   0  0  0  0  0  0  0  0  0  0  0  0
   -6.3675   -1.8246   -1.7853 S   0  0  0  0  0  0  0  0  0  0  0  0
   -7.9922   -1.4043   -1.3887 C   0  0  0  0  0  0  0  0  0  0  0  0
   -8.0116   -0.4602   -0.4028 C   0  0  0  0  0  0  0  0  0  0  0  0
   -9.3836    0.3701    0.4143 S   0  0  0  0  0  0  0  0  0  0  0  0
   -8.1336    1.2012    1.3325 C   0  0  0  0  0  0  0  0  0  0  0  0
   -6.8097    0.8624    1.0269 C   0  0  0  0  0  0  0  0  0  0  0  0
   -6.7225   -0.1160    0.0016 C   0  0  0  0  0  0  0  0  0  0  0  0
   -3.4441   -1.6646    0.0185 C   0  0  0  0  0  0  0  0  0  0  0  0
   -3.8535   -2.8911    0.3929 N   0  0  0  0  0  0  0  0  0  0  0  0
   -2.5071   -3.7312    0.8574 S   0  0  0  0  0  0  0  0  0  0  0  0
   -1.3386   -2.5906    0.6140 N   0  0  0  0  0  0  0  0  0  0  0  0
   -1.9459   -1.4720    0.1753 C   0  0  0  0  0  0  0  0  0  0  0  0
    5.2610    0.0517    0.0582 C   0  0  0  0  0  0  0  0  0  0  0  0
    5.2105   -1.1393   -0.5578 C   0  0  0  0  0  0  0  0  0  0  0  0
    6.8337   -1.7954   -1.8133 H   0  0  0  0  0  0  0  0  0  0  0  0
    6.7485   -2.6105   -0.2224 H   0  0  0  0  0  0  0  0  0  0  0  0
    8.5318   -0.5939   -0.1037 H   0  0  0  0  0  0  0  0  0  0  0  0
    8.0308    1.8946    1.1379 H   0  0  0  0  0  0  0  0  0  0  0  0
    6.1858    3.4041    1.8055 H   0  0  0  0  0  0  0  0  0  0  0  0
    3.8433    2.8400    1.4112 H   0  0  0  0  0  0  0  0  0  0  0  0
    2.4624    2.1875   -1.2601 H   0  0  0  0  0  0  0  0  0  0  0  0
    0.0575    1.6754   -1.5244 H   0  0  0  0  0  0  0  0  0  0  0  0
    2.6375   -0.8774    1.7492 H   0  0  0  0  0  0  0  0  0  0  0  0
   -4.1008    1.4215   -1.1409 H   0  0  0  0  0  0  0  0  0  0  0  0
   -8.8434   -1.8522   -1.8827 H   0  0  0  0  0  0  0  0  0  0  0  0
   -8.4638    1.9154    2.0748 H   0  0  0  0  0  0  0  0  0  0  0  0
   -5.9659    1.3089    1.5390 H   0  0  0  0  0  0  0  0  0  0  0  0
    4.3190   -1.6577   -0.8766 H   0  0  0  0  0  0  0  0  0  0  0  0
  1  2  1  0
  2  3  2  0
  3  4  1  0
  4  5  2  0
  5  6  1  0
  6  7  2  0
  7  8  1  0
  8  9  2  0
  9 10  1  0
 10 11  2  0
 11 12  1  0
 12 13  2  0
 11 14  1  0
 14 15  2  0
 15 16  1  0
 16 17  2  0
 17 18  1  0
 18 19  1  0
 19 20  1  0
 20 21  2  0
 21 22  1  0
 22 23  1  0
 23 24  2  0
 24 25  1  0
 17 26  1  0
 26 27  2  0
 27 28  1  0
 28 29  1  0
 29 30  2  0
  7 31  1  0
 31 32  2  0
 32  1  1  0
 31  3  1  0
 13  8  1  0
 30 14  1  0
 25 18  2  0
 30 26  1  0
 25 21  1  0
  1 33  1  0
  1 34  1  0
  2 35  1  0
  4 36  1  0
  5 37  1  0
  6 38  1  0
  9 39  1  0
 10 40  1  0
 13 41  1  0
 16 42  1  0
 20 43  1  0
 23 44  1  0
 24 45  1  0
 32 46  1  0
M  END
