
     RDKit          3D

 46 53  0  0  0  0  0  0  0  0999 V2000
   -7.5904   -0.5802    0.1185 C   0  0  0  0  0  0  0  0  0  0  0  0
   -7.1130    0.6686    0.4156 C   0  0  0  0  0  0  0  0  0  0  0  0
   -5.6849    0.7623    0.2882 C   0  0  0  0  0  0  0  0  0  0  0  0
   -4.8539    1.8583    0.5046 C   0  0  0  0  0  0  0  0  0  0  0  0
   -3.5211    1.7718    0.3371 N   0  0  0  0  0  0  0  0  0  0  0  0
   -2.9010    0.6484   -0.0431 C   0  0  0  0  0  0  0  0  0  0  0  0
   -3.6828   -0.5260   -0.2864 C   0  0  0  0  0  0  0  0  0  0  0  0
   -2.9120   -1.6476   -0.6818 C   0  0  0  0  0  0  0  0  0  0  0  0
   -3.3974   -2.9026   -0.9786 C   0  0  0  0  0  0  0  0  0  0  0  0
   -2.1720   -4.0166   -1.4197 S   0  0  0  0  0  0  0  0  0  0  0  0
   -0.9543   -2.8358   -1.2222 C   0  0  0  0  0  0  0  0  0  0  0  0
   -1.4662   -1.6175   -0.8291 C   0  0  0  0  0  0  0  0  0  0  0  0
   -0.6554   -0.4761   -0.5985 C   0  0  0  0  0  0  0  0  0  0  0  0
    0.7716   -0.4605   -0.7477 C   0  0  0  0  0  0  0  0  0  0  0  0
    1.5696    0.6712   -0.5124 C   0  0  0  0  0  0  0  0  0  0  0  0
    3.0272    0.6565   -0.6726 C   0  0  0  0  0  0  0  0  0  0  0  0
    3.5744    1.2142   -1.8435 C   0  0  0  0  0  0  0  0  0  0  0  0
    4.9463    1.2007   -2.0720 C   0  0  0  0  0  0  0  0  0  0  0  0
    5.7975    0.6257   -1.1338 C   0  0  0  0  0  0  0  0  0  0  0  0
    5.2930    0.0635    0.0475 C   0  0  0  0  0  0  0  0  0  0  0  0
    6.1710   -0.5082    0.9836 C   0  0  0  0  0  0  0  0  0  0  0  0
    5.6949   -1.0664    2.1685 C   0  0  0  0  0  0  0  0  0  0  0  0
    4.3329   -1.0571    2.4352 C   0  0  0  0  0  0  0  0  0  0  0  0
    3.4469   -0.4933    1.5142 C   0  0  0  0  0  0  0  0  0  0  0  0
    3.8963    0.0751    0.2976 C   0  0  0  0  0  0  0  0  0  0  0  0
    0.8694    1.8400   -0.1155 C   0  0  0  0  0  0  0  0  0  0  0  0
    1.4334    3.0313    0.1534 N   0  0  0  0  0  0  0  0  0  0  0  0
    0.2163    4.0607    0.5754 S   0  0  0  0  0  0  0  0  0  0  0  0
   -1.0827    3.0600    0.4324 N   0  0  0  0  0  0  0  0  0  0  0  0
   -0.6463    1.8449    0.0476 C   0  0  0  0  0  0  0  0  0  0  0  0
   -1.4555    0.6606   -0.1952 C   0  0  0  0  0  0  0  0  0  0  0  0
   -5.0923   -0.4446   -0.1122 C   0  0  0  0  0  0  0  0  0  0  0  0
   -6.3377   -1.6379   -0.3112 S   0  0  0  0  0  0  0  0  0  0  0  0
   -8.6176   -0.9187    0.1346 H   0  0  0  0  0  0  0  0  0  0  0  0
   -7.7526    1.4909    0.7137 H   0  0  0  0  0  0  0  0  0  0  0  0
   -5.2271    2.8288    0.8154 H   0  0  0  0  0  0  0  0  0  0  0  0
   -4.4022   -3.2878   -0.9777 H   0  0  0  0  0  0  0  0  0  0  0  0
    0.0682   -3.1277   -1.4126 H   0  0  0  0  0  0  0  0  0  0  0  0
    1.2920   -1.3661   -1.0590 H   0  0  0  0  0  0  0  0  0  0  0  0
    2.9224    1.6691   -2.5873 H   0  0  0  0  0  0  0  0  0  0  0  0
    5.3517    1.6397   -2.9797 H   0  0  0  0  0  0  0  0  0  0  0  0
    6.8676    0.6253   -1.3305 H   0  0  0  0  0  0  0  0  0  0  0  0
    7.2428   -0.5194    0.7962 H   0  0  0  0  0  0  0  0  0  0  0  0
    6.3887   -1.5012    2.8829 H   0  0  0  0  0  0  0  0  0  0  0  0
    3.9551   -1.4824    3.3613 H   0  0  0  0  0  0  0  0  0  0  0  0
    2.3891   -0.4945    1.7673 H   0  0  0  0  0  0  0  0  0  0  0  0
  1  2  2  0
  2  3  1  0
  3  4  2  0
  4  5  1  0
  5  6  2  0
  6  7  1  0
  7  8  1  0
  8  9  2  0
  9 10  1  0
 10 11  1  0
 11 12  2  0
 12 13  1  0
 13 14  1  0
 14 15  2  0
 15 16  1  0
 16 17  2  0
 17 18  1  0
 18 19  2  0
 19 20  1  0
 20 21  2  0
 21 22  1  0
 22 23  2  0
 23 24  1  0
 24 25  2  0
 15 26  1  0
 26 27  2  0
 27 28  1  0
 28 29  1  0
 29 30  2  0
 30 31  1  0
  7 32  2  0
 32 33  1  0
 33  1  1  0
 32  3  1  0
 31  6  1  0
 12  8  1  0
 31 13  2  0
 25 16  1  0
 30 26  1  0
 25 20  1  0
  1 34  1  0
  2 35  1  0
  4 36  1  0
  9 37  1  0
 11 38  1  0
 14 39  1  0
 17 40  1  0
 18 41  1  0
 19 42  1  0
 21 43  1  0
 22 44  1  0
 23 45  1  0
 24 46  1  0
M  END
