
     RDKit          3D

 35 40  0  0  0  0  0  0  0  0999 V2000
    6.3533   -0.9821    0.3332 C   0  0  0  0  0  0  0  0  0  0  0  0
    5.7302    0.2397    0.5099 C   0  0  0  0  0  0  0  0  0  0  0  0
    4.3319    0.2942    0.4141 C   0  0  0  0  0  0  0  0  0  0  0  0
    3.6170    1.4676    0.5750 C   0  0  0  0  0  0  0  0  0  0  0  0
    2.2745    1.5410    0.4870 N   0  0  0  0  0  0  0  0  0  0  0  0
    1.5588    0.4203    0.2276 C   0  0  0  0  0  0  0  0  0  0  0  0
    2.1893   -0.8300    0.0462 C   0  0  0  0  0  0  0  0  0  0  0  0
    1.4998   -1.9648   -0.2138 N   0  0  0  0  0  0  0  0  0  0  0  0
    0.1565   -1.9049   -0.3044 C   0  0  0  0  0  0  0  0  0  0  0  0
   -0.5883   -0.7486   -0.1489 C   0  0  0  0  0  0  0  0  0  0  0  0
   -2.0041   -0.7922   -0.2639 C   0  0  0  0  0  0  0  0  0  0  0  0
   -2.8791    0.3187   -0.1266 C   0  0  0  0  0  0  0  0  0  0  0  0
   -4.3373    0.1916   -0.2601 C   0  0  0  0  0  0  0  0  0  0  0  0
   -4.8112   -1.0349   -0.5209 N   0  0  0  0  0  0  0  0  0  0  0  0
   -6.1360   -1.1163   -0.6360 C   0  0  0  0  0  0  0  0  0  0  0  0
   -6.9954   -0.1109   -0.5165 N   0  0  0  0  0  0  0  0  0  0  0  0
   -6.4162    1.0568   -0.2585 C   0  0  0  0  0  0  0  0  0  0  0  0
   -5.1104    1.2672   -0.1212 N   0  0  0  0  0  0  0  0  0  0  0  0
   -2.2101    1.5468    0.1489 C   0  0  0  0  0  0  0  0  0  0  0  0
   -2.7766    2.7541    0.3272 N   0  0  0  0  0  0  0  0  0  0  0  0
   -1.5764    3.8438    0.6176 S   0  0  0  0  0  0  0  0  0  0  0  0
   -0.2596    2.8602    0.5370 N   0  0  0  0  0  0  0  0  0  0  0  0
   -0.6868    1.6115    0.2760 C   0  0  0  0  0  0  0  0  0  0  0  0
    0.1415    0.4361    0.1233 C   0  0  0  0  0  0  0  0  0  0  0  0
    3.5919   -0.8677    0.1454 C   0  0  0  0  0  0  0  0  0  0  0  0
    4.3372   -2.0412   -0.0133 C   0  0  0  0  0  0  0  0  0  0  0  0
    5.6895   -2.1245    0.0737 N   0  0  0  0  0  0  0  0  0  0  0  0
    7.4336   -1.0771    0.3974 H   0  0  0  0  0  0  0  0  0  0  0  0
    6.3227    1.1247    0.7168 H   0  0  0  0  0  0  0  0  0  0  0  0
    4.1073    2.4146    0.7856 H   0  0  0  0  0  0  0  0  0  0  0  0
   -0.3150   -2.8630   -0.5155 H   0  0  0  0  0  0  0  0  0  0  0  0
   -2.4623   -1.7635   -0.4765 H   0  0  0  0  0  0  0  0  0  0  0  0
   -6.5520   -2.0956   -0.8471 H   0  0  0  0  0  0  0  0  0  0  0  0
   -7.0657    1.9187   -0.1495 H   0  0  0  0  0  0  0  0  0  0  0  0
    3.8471   -2.9902   -0.2241 H   0  0  0  0  0  0  0  0  0  0  0  0
  1  2  2  0
  2  3  1  0
  3  4  2  0
  4  5  1  0
  5  6  2  0
  6  7  1  0
  7  8  1  0
  8  9  2  0
  9 10  1  0
 10 11  1  0
 11 12  2  0
 12 13  1  0
 13 14  2  0
 14 15  1  0
 15 16  2  0
 16 17  1  0
 17 18  2  0
 12 19  1  0
 19 20  2  0
 20 21  1  0
 21 22  1  0
 22 23  2  0
 23 24  1  0
  7 25  2  0
 25 26  1  0
 26 27  2  0
 27  1  1  0
 25  3  1  0
 24  6  1  0
 24 10  2  0
 18 13  1  0
 23 19  1  0
  1 28  1  0
  2 29  1  0
  4 30  1  0
  9 31  1  0
 11 32  1  0
 15 33  1  0
 17 34  1  0
 26 35  1  0
M  END
