
     RDKit          3D

 47 54  0  0  0  0  0  0  0  0999 V2000
   -0.7455   -4.6646    1.0685 Si  0  0  0  0  0  4  0  0  0  0  0  0
    0.6111   -3.3842    1.0339 C   0  0  0  0  0  0  0  0  0  0  0  0
    0.1607   -2.1852    0.6038 C   0  0  0  0  0  0  0  0  0  0  0  0
    1.0092   -0.9925    0.3336 C   0  0  0  0  0  0  0  0  0  0  0  0
    2.4441   -1.0949    0.3792 C   0  0  0  0  0  0  0  0  0  0  0  0
    3.3334   -0.1084   -0.1001 C   0  0  0  0  0  0  0  0  0  0  0  0
    4.7763   -0.2606   -0.0277 C   0  0  0  0  0  0  0  0  0  0  0  0
    5.4403   -1.3048   -0.4817 N   0  0  0  0  0  0  0  0  0  0  0  0
    6.7866   -1.1601   -0.2120 C   0  0  0  0  0  0  0  0  0  0  0  0
    7.1362   -0.0194    0.4756 C   0  0  0  0  0  0  0  0  0  0  0  0
    5.7338    0.9076    0.8045 S   0  0  0  0  0  0  0  0  0  0  0  0
    2.6573    0.9312   -0.7542 C   0  0  0  0  0  0  0  0  0  0  0  0
    3.2811    1.9075   -1.4991 C   0  0  0  0  0  0  0  0  0  0  0  0
    2.1547    2.9399   -2.2731 S   0  0  0  0  0  0  0  0  0  0  0  0
    0.8228    2.0638   -1.6434 C   0  0  0  0  0  0  0  0  0  0  0  0
    1.2077    1.0603   -0.7793 C   0  0  0  0  0  0  0  0  0  0  0  0
    0.3134    0.1807   -0.1169 C   0  0  0  0  0  0  0  0  0  0  0  0
   -1.1693    0.3281   -0.0155 C   0  0  0  0  0  0  0  0  0  0  0  0
   -1.8413    1.5833    0.1584 C   0  0  0  0  0  0  0  0  0  0  0  0
   -1.2088    2.7872    0.5625 C   0  0  0  0  0  0  0  0  0  0  0  0
   -1.8955    4.0013    0.6757 C   0  0  0  0  0  0  0  0  0  0  0  0
   -3.2561    4.0571    0.4136 C   0  0  0  0  0  0  0  0  0  0  0  0
   -3.9370    2.8921    0.0768 C   0  0  0  0  0  0  0  0  0  0  0  0
   -3.2498    1.6614   -0.0221 C   0  0  0  0  0  0  0  0  0  0  0  0
   -3.9941    0.4817   -0.2702 C   0  0  0  0  0  0  0  0  0  0  0  0
   -5.3673    0.1694   -0.5034 C   0  0  0  0  0  0  0  0  0  0  0  0
   -5.4516   -1.1979   -0.5754 C   0  0  0  0  0  0  0  0  0  0  0  0
   -4.2307   -1.7534   -0.3956 O   0  0  0  0  0  0  0  0  0  0  0  0
   -3.3284   -0.7395   -0.2232 C   0  0  0  0  0  0  0  0  0  0  0  0
   -1.9470   -0.8644   -0.0270 C   0  0  0  0  0  0  0  0  0  0  0  0
   -1.2944   -2.1533    0.2979 C   0  0  0  0  0  0  0  0  0  0  0  0
   -1.9102   -3.3433    0.4689 C   0  0  0  0  0  0  0  0  0  0  0  0
   -1.0532   -5.1204    2.4457 H   0  0  0  0  0  0  0  0  0  0  0  0
   -0.5312   -5.7413    0.0718 H   0  0  0  0  0  0  0  0  0  0  0  0
    1.6151   -3.6749    1.2924 H   0  0  0  0  0  0  0  0  0  0  0  0
    2.8999   -2.0032    0.7727 H   0  0  0  0  0  0  0  0  0  0  0  0
    7.4768   -1.9285   -0.5386 H   0  0  0  0  0  0  0  0  0  0  0  0
    8.1167    0.2992    0.7983 H   0  0  0  0  0  0  0  0  0  0  0  0
    4.3355    2.0655   -1.6784 H   0  0  0  0  0  0  0  0  0  0  0  0
   -0.1706    2.3516   -1.9579 H   0  0  0  0  0  0  0  0  0  0  0  0
   -0.1524    2.7928    0.8246 H   0  0  0  0  0  0  0  0  0  0  0  0
   -1.3603    4.8986    0.9768 H   0  0  0  0  0  0  0  0  0  0  0  0
   -3.7918    4.9987    0.4993 H   0  0  0  0  0  0  0  0  0  0  0  0
   -5.0106    2.9484   -0.0838 H   0  0  0  0  0  0  0  0  0  0  0  0
   -6.1953    0.8576   -0.5905 H   0  0  0  0  0  0  0  0  0  0  0  0
   -6.2649   -1.8931   -0.7302 H   0  0  0  0  0  0  0  0  0  0  0  0
   -2.9553   -3.5769    0.3564 H   0  0  0  0  0  0  0  0  0  0  0  0
  1  2  1  0
  2  3  2  0
  3  4  1  0
  4  5  1  0
  5  6  2  0
  6  7  1  0
  7  8  2  0
  8  9  1  0
  9 10  2  0
 10 11  1  0
  6 12  1  0
 12 13  2  0
 13 14  1  0
 14 15  1  0
 15 16  2  0
 16 17  1  0
 17 18  1  0
 18 19  2  0
 19 20  1  0
 20 21  2  0
 21 22  1  0
 22 23  2  0
 23 24  1  0
 24 25  2  0
 25 26  1  0
 26 27  2  0
 27 28  1  0
 28 29  1  0
 29 30  2  0
 30 31  1  0
 31 32  2  0
 32  1  1  0
 31  3  1  0
 17  4  2  0
 30 18  1  0
 11  7  1  0
 16 12  1  0
 24 19  1  0
 29 25  1  0
  1 33  1  0
  1 34  1  0
  2 35  1  0
  5 36  1  0
  9 37  1  0
 10 38  1  0
 13 39  1  0
 15 40  1  0
 20 41  1  0
 21 42  1  0
 22 43  1  0
 23 44  1  0
 26 45  1  0
 27 46  1  0
 32 47  1  0
M  END
