
     RDKit          3D

 33 38  0  0  0  0  0  0  0  0999 V2000
    5.9070   -1.4660   -1.3967 C   0  0  0  0  0  0  0  0  0  0  0  0
    6.1713   -0.3693   -0.5949 C   0  0  0  0  0  0  0  0  0  0  0  0
    4.9276    0.1569   -0.1504 C   0  0  0  0  0  0  0  0  0  0  0  0
    4.4957    1.2221    0.6584 C   0  0  0  0  0  0  0  0  0  0  0  0
    3.1854    1.5034    0.9242 N   0  0  0  0  0  0  0  0  0  0  0  0
    2.2185    0.7171    0.3832 C   0  0  0  0  0  0  0  0  0  0  0  0
    0.8080    0.7560    0.4735 C   0  0  0  0  0  0  0  0  0  0  0  0
   -0.1370    1.5533    1.1060 C   0  0  0  0  0  0  0  0  0  0  0  0
   -1.4613    1.2785    0.9600 N   0  0  0  0  0  0  0  0  0  0  0  0
   -1.8915    0.2321    0.2027 C   0  0  0  0  0  0  0  0  0  0  0  0
   -0.9978   -0.6107   -0.4613 C   0  0  0  0  0  0  0  0  0  0  0  0
    0.3451   -0.3073   -0.2949 C   0  0  0  0  0  0  0  0  0  0  0  0
    1.3889   -0.9955   -0.8508 O   0  0  0  0  0  0  0  0  0  0  0  0
    2.5032   -0.3600   -0.4281 C   0  0  0  0  0  0  0  0  0  0  0  0
    3.9686   -0.6563   -0.7117 C   0  0  0  0  0  0  0  0  0  0  0  0
    4.5435   -1.6312   -1.4598 N   0  0  0  0  0  0  0  0  0  0  0  0
   -3.3454    0.0126    0.1032 C   0  0  0  0  0  0  0  0  0  0  0  0
   -3.7937   -1.0524   -0.6671 N   0  0  0  0  0  0  0  0  0  0  0  0
   -5.1230   -1.3363   -0.8197 C   0  0  0  0  0  0  0  0  0  0  0  0
   -6.1934   -0.6516   -0.2652 C   0  0  0  0  0  0  0  0  0  0  0  0
   -5.8068    0.4423    0.5293 C   0  0  0  0  0  0  0  0  0  0  0  0
   -6.6601    1.2568    1.1707 N   0  0  0  0  0  0  0  0  0  0  0  0
   -5.7323    2.3790    1.9625 S   0  0  0  0  0  0  0  0  0  0  0  0
   -4.2172    1.8828    1.5284 N   0  0  0  0  0  0  0  0  0  0  0  0
   -4.3517    0.8041    0.7342 C   0  0  0  0  0  0  0  0  0  0  0  0
    6.5689   -2.1395   -1.9250 H   0  0  0  0  0  0  0  0  0  0  0  0
    7.1571    0.0095   -0.3569 H   0  0  0  0  0  0  0  0  0  0  0  0
    5.2101    1.8944    1.1259 H   0  0  0  0  0  0  0  0  0  0  0  0
    0.1196    2.4047    1.7263 H   0  0  0  0  0  0  0  0  0  0  0  0
   -1.3178   -1.4475   -1.0680 H   0  0  0  0  0  0  0  0  0  0  0  0
    4.0499   -2.3513   -1.9723 H   0  0  0  0  0  0  0  0  0  0  0  0
   -5.3141   -2.2022   -1.4536 H   0  0  0  0  0  0  0  0  0  0  0  0
   -7.2253   -0.9284   -0.4255 H   0  0  0  0  0  0  0  0  0  0  0  0
  1  2  2  0
  2  3  1  0
  3  4  2  0
  4  5  1  0
  5  6  2  0
  6  7  1  0
  7  8  2  0
  8  9  1  0
  9 10  2  0
 10 11  1  0
 11 12  2  0
 12 13  1  0
 13 14  1  0
 14 15  2  0
 15 16  1  0
 10 17  1  0
 17 18  2  0
 18 19  1  0
 19 20  2  0
 20 21  1  0
 21 22  2  0
 22 23  1  0
 23 24  1  0
 24 25  2  0
 16  1  1  0
 25 17  1  0
 15  3  1  0
 25 21  1  0
 14  6  1  0
 12  7  1  0
  1 26  1  0
  2 27  1  0
  4 28  1  0
  8 29  1  0
 11 30  1  0
 16 31  1  0
 19 32  1  0
 20 33  1  0
M  END
