
     RDKit          3D

 37 42  0  0  0  0  0  0  0  0999 V2000
    6.3928    0.2147    1.2438 C   0  0  0  0  0  0  0  0  0  0  0  0
    6.5192   -0.7029    0.2265 C   0  0  0  0  0  0  0  0  0  0  0  0
    5.2032   -0.9760   -0.2317 C   0  0  0  0  0  0  0  0  0  0  0  0
    4.6262   -1.7851   -1.2078 C   0  0  0  0  0  0  0  0  0  0  0  0
    3.2766   -1.7995   -1.3789 N   0  0  0  0  0  0  0  0  0  0  0  0
    2.4761   -1.0345   -0.6109 C   0  0  0  0  0  0  0  0  0  0  0  0
    1.0987   -1.0646   -0.8031 C   0  0  0  0  0  0  0  0  0  0  0  0
    0.1987   -0.2945   -0.0394 C   0  0  0  0  0  0  0  0  0  0  0  0
   -1.1998   -0.3678   -0.2821 C   0  0  0  0  0  0  0  0  0  0  0  0
   -2.1906    0.3643    0.4244 C   0  0  0  0  0  0  0  0  0  0  0  0
   -3.6220    0.2396    0.1271 C   0  0  0  0  0  0  0  0  0  0  0  0
   -4.2405   -1.0224    0.0892 C   0  0  0  0  0  0  0  0  0  0  0  0
   -5.5994   -1.1530   -0.2111 C   0  0  0  0  0  0  0  0  0  0  0  0
   -6.3651   -0.0225   -0.4815 C   0  0  0  0  0  0  0  0  0  0  0  0
   -5.7735    1.2372   -0.4507 C   0  0  0  0  0  0  0  0  0  0  0  0
   -4.4145    1.3658   -0.1502 C   0  0  0  0  0  0  0  0  0  0  0  0
   -1.6954    1.2255    1.4486 C   0  0  0  0  0  0  0  0  0  0  0  0
   -2.4205    2.0146    2.2627 N   0  0  0  0  0  0  0  0  0  0  0  0
   -1.3586    2.7916    3.2654 S   0  0  0  0  0  0  0  0  0  0  0  0
    0.0807    2.1772    2.7251 N   0  0  0  0  0  0  0  0  0  0  0  0
   -0.2110    1.3215    1.7284 C   0  0  0  0  0  0  0  0  0  0  0  0
    0.7326    0.5495    0.9700 C   0  0  0  0  0  0  0  0  0  0  0  0
    2.1193    0.6057    1.1926 C   0  0  0  0  0  0  0  0  0  0  0  0
    2.9641   -0.1874    0.3979 C   0  0  0  0  0  0  0  0  0  0  0  0
    4.3577   -0.1976    0.5466 C   0  0  0  0  0  0  0  0  0  0  0  0
    5.0866    0.5275    1.4457 O   0  0  0  0  0  0  0  0  0  0  0  0
    7.0975    0.7184    1.8912 H   0  0  0  0  0  0  0  0  0  0  0  0
    7.4456   -1.1227   -0.1392 H   0  0  0  0  0  0  0  0  0  0  0  0
    5.2005   -2.4282   -1.8651 H   0  0  0  0  0  0  0  0  0  0  0  0
    0.7194   -1.7208   -1.5858 H   0  0  0  0  0  0  0  0  0  0  0  0
   -1.5448   -1.0288   -1.0820 H   0  0  0  0  0  0  0  0  0  0  0  0
   -3.6672   -1.9212    0.3079 H   0  0  0  0  0  0  0  0  0  0  0  0
   -6.0590   -2.1378   -0.2290 H   0  0  0  0  0  0  0  0  0  0  0  0
   -7.4224   -0.1221   -0.7124 H   0  0  0  0  0  0  0  0  0  0  0  0
   -6.3677    2.1234   -0.6577 H   0  0  0  0  0  0  0  0  0  0  0  0
   -3.9762    2.3621   -0.1339 H   0  0  0  0  0  0  0  0  0  0  0  0
    2.5330    1.2506    1.9650 H   0  0  0  0  0  0  0  0  0  0  0  0
  1  2  2  0
  2  3  1  0
  3  4  2  0
  4  5  1  0
  5  6  2  0
  6  7  1  0
  7  8  2  0
  8  9  1  0
  9 10  2  0
 10 11  1  0
 11 12  2  0
 12 13  1  0
 13 14  2  0
 14 15  1  0
 15 16  2  0
 10 17  1  0
 17 18  2  0
 18 19  1  0
 19 20  1  0
 20 21  2  0
 21 22  1  0
 22 23  2  0
 23 24  1  0
 24 25  2  0
 25 26  1  0
 26  1  1  0
 25  3  1  0
 24  6  1  0
 22  8  1  0
 16 11  1  0
 21 17  1  0
  1 27  1  0
  2 28  1  0
  4 29  1  0
  7 30  1  0
  9 31  1  0
 12 32  1  0
 13 33  1  0
 14 34  1  0
 15 35  1  0
 16 36  1  0
 23 37  1  0
M  END
