
     RDKit          3D

 34 39  0  0  0  0  0  0  0  0999 V2000
    6.3664   -0.8402    1.1602 C   0  0  0  0  0  0  0  0  0  0  0  0
    6.6860   -0.0062    0.0858 C   0  0  0  0  0  0  0  0  0  0  0  0
    5.5366    0.5048   -0.5607 C   0  0  0  0  0  0  0  0  0  0  0  0
    5.3863    1.3289   -1.6182 C   0  0  0  0  0  0  0  0  0  0  0  0
    3.7055    1.5432   -1.8790 S   0  0  0  0  0  0  0  0  0  0  0  0
    3.2453    0.5155   -0.5545 C   0  0  0  0  0  0  0  0  0  0  0  0
    1.8375    0.2544   -0.2068 C   0  0  0  0  0  0  0  0  0  0  0  0
    0.7676    0.8123   -0.9141 C   0  0  0  0  0  0  0  0  0  0  0  0
   -0.5185    0.4803   -0.4765 C   0  0  0  0  0  0  0  0  0  0  0  0
   -1.7478    0.8698   -0.9661 N   0  0  0  0  0  0  0  0  0  0  0  0
   -2.7181    0.2814   -0.2017 C   0  0  0  0  0  0  0  0  0  0  0  0
   -4.1269    0.1826   -0.0626 C   0  0  0  0  0  0  0  0  0  0  0  0
   -5.2385    0.7067   -0.7262 C   0  0  0  0  0  0  0  0  0  0  0  0
   -6.4910    0.3935   -0.3129 N   0  0  0  0  0  0  0  0  0  0  0  0
   -6.6391   -0.4315    0.7483 C   0  0  0  0  0  0  0  0  0  0  0  0
   -5.5991   -1.0010    1.4708 C   0  0  0  0  0  0  0  0  0  0  0  0
   -4.3178   -0.6689    1.0331 C   0  0  0  0  0  0  0  0  0  0  0  0
   -3.0877   -1.0573    1.5213 N   0  0  0  0  0  0  0  0  0  0  0  0
   -2.1180   -0.4685    0.7564 C   0  0  0  0  0  0  0  0  0  0  0  0
   -0.7099   -0.3690    0.6163 C   0  0  0  0  0  0  0  0  0  0  0  0
    0.4025   -0.8877    1.2730 C   0  0  0  0  0  0  0  0  0  0  0  0
    1.6518   -0.5692    0.8529 N   0  0  0  0  0  0  0  0  0  0  0  0
    4.3784    0.0286    0.0612 C   0  0  0  0  0  0  0  0  0  0  0  0
    4.6573   -1.0767    1.4791 S   0  0  0  0  0  0  0  0  0  0  0  0
    7.0617   -1.3518    1.8115 H   0  0  0  0  0  0  0  0  0  0  0  0
    7.7090    0.2078   -0.1981 H   0  0  0  0  0  0  0  0  0  0  0  0
    6.1277    1.8087   -2.2412 H   0  0  0  0  0  0  0  0  0  0  0  0
    0.9059    1.4709   -1.7614 H   0  0  0  0  0  0  0  0  0  0  0  0
   -1.9364    1.4812   -1.7499 H   0  0  0  0  0  0  0  0  0  0  0  0
   -5.1648    1.3703   -1.5793 H   0  0  0  0  0  0  0  0  0  0  0  0
   -7.6714   -0.6369    1.0211 H   0  0  0  0  0  0  0  0  0  0  0  0
   -5.7802   -1.6555    2.3133 H   0  0  0  0  0  0  0  0  0  0  0  0
   -2.8990   -1.6686    2.3049 H   0  0  0  0  0  0  0  0  0  0  0  0
    0.3387   -1.5518    2.1267 H   0  0  0  0  0  0  0  0  0  0  0  0
  1  2  2  0
  2  3  1  0
  3  4  2  0
  4  5  1  0
  5  6  1  0
  6  7  1  0
  7  8  2  0
  8  9  1  0
  9 10  1  0
 10 11  1  0
 11 12  1  0
 12 13  2  0
 13 14  1  0
 14 15  2  0
 15 16  1  0
 16 17  2  0
 17 18  1  0
 18 19  1  0
 19 20  1  0
 20 21  1  0
 21 22  2  0
  6 23  2  0
 23 24  1  0
 24  1  1  0
 23  3  1  0
 22  7  1  0
 20  9  2  0
 19 11  2  0
 17 12  1  0
  1 25  1  0
  2 26  1  0
  4 27  1  0
  8 28  1  0
 10 29  1  0
 13 30  1  0
 15 31  1  0
 16 32  1  0
 18 33  1  0
 21 34  1  0
M  END
