
     RDKit          3D

 41 47  0  0  0  0  0  0  0  0999 V2000
    6.4623    0.8035   -0.3741 C   0  0  0  0  0  0  0  0  0  0  0  0
    6.5918   -0.5729   -0.5791 C   0  0  0  0  0  0  0  0  0  0  0  0
    5.3423   -1.2353   -0.5937 C   0  0  0  0  0  0  0  0  0  0  0  0
    5.0057   -2.5321   -0.7575 C   0  0  0  0  0  0  0  0  0  0  0  0
    3.2959   -2.6468   -0.6644 S   0  0  0  0  0  0  0  0  0  0  0  0
    3.0822   -0.9403   -0.4069 C   0  0  0  0  0  0  0  0  0  0  0  0
    1.7784   -0.3569   -0.2401 C   0  0  0  0  0  0  0  0  0  0  0  0
    1.3626    0.9397   -0.0282 C   0  0  0  0  0  0  0  0  0  0  0  0
   -0.0668    0.9627    0.0666 C   0  0  0  0  0  0  0  0  0  0  0  0
   -0.5019   -0.3518   -0.0934 C   0  0  0  0  0  0  0  0  0  0  0  0
    0.6298   -1.1131   -0.2746 N   0  0  0  0  0  0  0  0  0  0  0  0
   -1.8650   -0.6867   -0.0540 C   0  0  0  0  0  0  0  0  0  0  0  0
   -2.4177   -1.9731   -0.2025 C   0  0  0  0  0  0  0  0  0  0  0  0
   -1.8126   -3.1883   -0.4149 C   0  0  0  0  0  0  0  0  0  0  0  0
   -2.7512   -4.1820   -0.4968 O   0  0  0  0  0  0  0  0  0  0  0  0
   -3.9752   -3.6020   -0.3356 C   0  0  0  0  0  0  0  0  0  0  0  0
   -3.8143   -2.2559   -0.1535 C   0  0  0  0  0  0  0  0  0  0  0  0
   -4.8276   -1.3411    0.0420 C   0  0  0  0  0  0  0  0  0  0  0  0
   -4.2819   -0.0420    0.1927 C   0  0  0  0  0  0  0  0  0  0  0  0
   -2.8659    0.3333    0.1558 C   0  0  0  0  0  0  0  0  0  0  0  0
   -2.4204    1.6864    0.3206 C   0  0  0  0  0  0  0  0  0  0  0  0
   -3.2863    2.7915    0.5340 C   0  0  0  0  0  0  0  0  0  0  0  0
   -2.8179    4.1015    0.6912 C   0  0  0  0  0  0  0  0  0  0  0  0
   -1.4587    4.3637    0.6417 C   0  0  0  0  0  0  0  0  0  0  0  0
   -0.5676    3.3161    0.4349 C   0  0  0  0  0  0  0  0  0  0  0  0
   -1.0298    1.9891    0.2749 C   0  0  0  0  0  0  0  0  0  0  0  0
    4.3077   -0.3161   -0.3962 C   0  0  0  0  0  0  0  0  0  0  0  0
    4.8264    1.4098   -0.1828 S   0  0  0  0  0  0  0  0  0  0  0  0
    7.2640    1.5277   -0.3220 H   0  0  0  0  0  0  0  0  0  0  0  0
    7.5544   -1.0523   -0.7092 H   0  0  0  0  0  0  0  0  0  0  0  0
    5.6281   -3.4005   -0.9214 H   0  0  0  0  0  0  0  0  0  0  0  0
    2.0033    1.8050    0.0545 H   0  0  0  0  0  0  0  0  0  0  0  0
    0.6420   -2.1092   -0.4178 H   0  0  0  0  0  0  0  0  0  0  0  0
   -0.8013   -3.5423   -0.5302 H   0  0  0  0  0  0  0  0  0  0  0  0
   -4.8211   -4.2733   -0.3774 H   0  0  0  0  0  0  0  0  0  0  0  0
   -5.8864   -1.5527    0.0795 H   0  0  0  0  0  0  0  0  0  0  0  0
   -5.0250    0.7389    0.3519 H   0  0  0  0  0  0  0  0  0  0  0  0
   -4.3627    2.6599    0.5840 H   0  0  0  0  0  0  0  0  0  0  0  0
   -3.5232    4.9128    0.8523 H   0  0  0  0  0  0  0  0  0  0  0  0
   -1.0902    5.3784    0.7631 H   0  0  0  0  0  0  0  0  0  0  0  0
    0.4939    3.5469    0.4000 H   0  0  0  0  0  0  0  0  0  0  0  0
  1  2  2  0
  2  3  1  0
  3  4  2  0
  4  5  1  0
  5  6  1  0
  6  7  1  0
  7  8  2  0
  8  9  1  0
  9 10  2  0
 10 11  1  0
 10 12  1  0
 12 13  1  0
 13 14  2  0
 14 15  1  0
 15 16  1  0
 16 17  2  0
 17 18  1  0
 18 19  2  0
 19 20  1  0
 20 21  1  0
 21 22  2  0
 22 23  1  0
 23 24  2  0
 24 25  1  0
 25 26  2  0
  6 27  2  0
 27 28  1  0
 28  1  1  0
 27  3  1  0
 11  7  1  0
 20 12  2  0
 26 21  1  0
 26  9  1  0
 17 13  1  0
  1 29  1  0
  2 30  1  0
  4 31  1  0
  8 32  1  0
 11 33  1  0
 14 34  1  0
 16 35  1  0
 18 36  1  0
 19 37  1  0
 22 38  1  0
 23 39  1  0
 24 40  1  0
 25 41  1  0
M  END
