
     RDKit          3D

 39 45  0  0  0  0  0  0  0  0999 V2000
    6.3782    0.2265    0.2408 C   0  0  0  0  0  0  0  0  0  0  0  0
    6.8625   -1.0785    0.0866 C   0  0  0  0  0  0  0  0  0  0  0  0
    5.7156   -1.8743   -0.0525 C   0  0  0  0  0  0  0  0  0  0  0  0
    5.3669   -3.1653   -0.2309 C   0  0  0  0  0  0  0  0  0  0  0  0
    3.6290   -3.2348   -0.2943 S   0  0  0  0  0  0  0  0  0  0  0  0
    3.4378   -1.5209   -0.0780 C   0  0  0  0  0  0  0  0  0  0  0  0
    2.1686   -0.8637   -0.0325 C   0  0  0  0  0  0  0  0  0  0  0  0
    1.8756    0.4840    0.1331 C   0  0  0  0  0  0  0  0  0  0  0  0
    0.4608    0.6337    0.1083 C   0  0  0  0  0  0  0  0  0  0  0  0
   -0.0218   -0.6428   -0.0724 C   0  0  0  0  0  0  0  0  0  0  0  0
    0.9817   -1.5461   -0.1582 O   0  0  0  0  0  0  0  0  0  0  0  0
   -1.5401   -0.9257   -0.1567 C   0  0  0  0  0  0  0  0  0  0  0  0
   -2.2053   -2.4580   -0.3763 S   0  0  0  0  0  0  0  0  0  0  0  0
   -3.7983   -1.8254   -0.3441 C   0  0  0  0  0  0  0  0  0  0  0  0
   -5.0085   -2.5238   -0.4726 C   0  0  0  0  0  0  0  0  0  0  0  0
   -6.1828   -1.7852   -0.4135 C   0  0  0  0  0  0  0  0  0  0  0  0
   -6.0977   -0.4187   -0.2336 C   0  0  0  0  0  0  0  0  0  0  0  0
   -4.9552    0.2804   -0.1072 N   0  0  0  0  0  0  0  0  0  0  0  0
   -3.7934   -0.4368   -0.1638 C   0  0  0  0  0  0  0  0  0  0  0  0
   -2.4525    0.1072   -0.0513 C   0  0  0  0  0  0  0  0  0  0  0  0
   -1.9087    1.4310    0.1375 C   0  0  0  0  0  0  0  0  0  0  0  0
   -2.7741    2.5385    0.2540 C   0  0  0  0  0  0  0  0  0  0  0  0
   -2.2781    3.8330    0.4375 C   0  0  0  0  0  0  0  0  0  0  0  0
   -0.9072    4.0603    0.5099 C   0  0  0  0  0  0  0  0  0  0  0  0
   -0.0142    2.9955    0.3997 C   0  0  0  0  0  0  0  0  0  0  0  0
   -0.4884    1.6820    0.2145 C   0  0  0  0  0  0  0  0  0  0  0  0
    4.6714   -0.9836    0.0303 C   0  0  0  0  0  0  0  0  0  0  0  0
    4.9994    0.3283    0.2108 O   0  0  0  0  0  0  0  0  0  0  0  0
    6.8836    1.1736    0.3794 H   0  0  0  0  0  0  0  0  0  0  0  0
    7.9014   -1.3751    0.0807 H   0  0  0  0  0  0  0  0  0  0  0  0
    5.9712   -4.0559   -0.3275 H   0  0  0  0  0  0  0  0  0  0  0  0
    2.6049    1.2719    0.2582 H   0  0  0  0  0  0  0  0  0  0  0  0
   -5.0252   -3.5997   -0.6127 H   0  0  0  0  0  0  0  0  0  0  0  0
   -7.1485   -2.2702   -0.5067 H   0  0  0  0  0  0  0  0  0  0  0  0
   -7.0027    0.1827   -0.1840 H   0  0  0  0  0  0  0  0  0  0  0  0
   -3.8530    2.4146    0.2042 H   0  0  0  0  0  0  0  0  0  0  0  0
   -2.9717    4.6661    0.5238 H   0  0  0  0  0  0  0  0  0  0  0  0
   -0.5321    5.0706    0.6527 H   0  0  0  0  0  0  0  0  0  0  0  0
    1.0510    3.2047    0.4602 H   0  0  0  0  0  0  0  0  0  0  0  0
  1  2  2  0
  2  3  1  0
  3  4  2  0
  4  5  1  0
  5  6  1  0
  6  7  1  0
  7  8  2  0
  8  9  1  0
  9 10  2  0
 10 11  1  0
 10 12  1  0
 12 13  1  0
 13 14  1  0
 14 15  2  0
 15 16  1  0
 16 17  2  0
 17 18  1  0
 18 19  2  0
 19 20  1  0
 20 21  1  0
 21 22  2  0
 22 23  1  0
 23 24  2  0
 24 25  1  0
 25 26  2  0
  6 27  2  0
 27 28  1  0
 28  1  1  0
 27  3  1  0
 11  7  1  0
 20 12  2  0
 26 21  1  0
 26  9  1  0
 19 14  1  0
  1 29  1  0
  2 30  1  0
  4 31  1  0
  8 32  1  0
 15 33  1  0
 16 34  1  0
 17 35  1  0
 22 36  1  0
 23 37  1  0
 24 38  1  0
 25 39  1  0
M  END
