
     RDKit          3D

 45 52  0  0  0  0  0  0  0  0999 V2000
    6.0096   -0.5502    2.0832 C   0  0  0  0  0  0  0  0  0  0  0  0
    6.8978    0.0209    1.1466 C   0  0  0  0  0  0  0  0  0  0  0  0
    6.1135    0.4922    0.0663 C   0  0  0  0  0  0  0  0  0  0  0  0
    6.2310    1.1237   -1.1189 C   0  0  0  0  0  0  0  0  0  0  0  0
    4.6313    1.3010   -1.7784 S   0  0  0  0  0  0  0  0  0  0  0  0
    3.8682    0.5046   -0.4362 C   0  0  0  0  0  0  0  0  0  0  0  0
    2.4618    0.2574   -0.3403 C   0  0  0  0  0  0  0  0  0  0  0  0
    1.8465   -0.9486   -0.1153 C   0  0  0  0  0  0  0  0  0  0  0  0
    0.4003   -0.8733   -0.0455 C   0  0  0  0  0  0  0  0  0  0  0  0
   -0.0446    0.4465   -0.2322 C   0  0  0  0  0  0  0  0  0  0  0  0
    1.3174    1.4916   -0.4871 S   0  0  0  0  0  0  0  0  0  0  0  0
   -1.4282    0.7686   -0.1993 C   0  0  0  0  0  0  0  0  0  0  0  0
   -2.0002    2.0577   -0.3728 C   0  0  0  0  0  0  0  0  0  0  0  0
   -1.3902    3.2747   -0.6113 C   0  0  0  0  0  0  0  0  0  0  0  0
   -2.3601    4.2631   -0.7109 N   0  0  0  0  0  0  0  0  0  0  0  0
   -3.6092    3.7175   -0.5407 C   0  0  0  0  0  0  0  0  0  0  0  0
   -3.3671    2.3936   -0.3400 C   0  0  0  0  0  0  0  0  0  0  0  0
   -4.2949    1.3653   -0.1130 C   0  0  0  0  0  0  0  0  0  0  0  0
   -5.6823    1.3914   -0.0281 C   0  0  0  0  0  0  0  0  0  0  0  0
   -6.0083    0.0745    0.2069 C   0  0  0  0  0  0  0  0  0  0  0  0
   -4.8917   -0.7085    0.2625 O   0  0  0  0  0  0  0  0  0  0  0  0
   -3.7880    0.0958    0.0602 C   0  0  0  0  0  0  0  0  0  0  0  0
   -2.3947   -0.2882    0.0325 C   0  0  0  0  0  0  0  0  0  0  0  0
   -1.9577   -1.6408    0.2209 C   0  0  0  0  0  0  0  0  0  0  0  0
   -2.8061   -2.7595    0.4521 C   0  0  0  0  0  0  0  0  0  0  0  0
   -2.3236   -4.0598    0.6272 C   0  0  0  0  0  0  0  0  0  0  0  0
   -0.9640   -4.2996    0.5778 C   0  0  0  0  0  0  0  0  0  0  0  0
   -0.0935   -3.2374    0.3547 C   0  0  0  0  0  0  0  0  0  0  0  0
   -0.5663   -1.9115    0.1764 C   0  0  0  0  0  0  0  0  0  0  0  0
    4.8328    0.1559    0.4464 C   0  0  0  0  0  0  0  0  0  0  0  0
    4.6859   -0.4669    1.6547 N   0  0  0  0  0  0  0  0  0  0  0  0
    6.2211   -1.0103    3.0401 H   0  0  0  0  0  0  0  0  0  0  0  0
    7.9721    0.0809    1.2602 H   0  0  0  0  0  0  0  0  0  0  0  0
    7.1027    1.4928   -1.6391 H   0  0  0  0  0  0  0  0  0  0  0  0
    2.4116   -1.8663   -0.0128 H   0  0  0  0  0  0  0  0  0  0  0  0
   -0.3619    3.5780   -0.7286 H   0  0  0  0  0  0  0  0  0  0  0  0
   -2.1678    5.2414   -0.8849 H   0  0  0  0  0  0  0  0  0  0  0  0
   -4.5067    4.3184   -0.5816 H   0  0  0  0  0  0  0  0  0  0  0  0
   -6.3638    2.2234   -0.1197 H   0  0  0  0  0  0  0  0  0  0  0  0
   -6.9436   -0.4482    0.3518 H   0  0  0  0  0  0  0  0  0  0  0  0
   -3.8839   -2.6469    0.5015 H   0  0  0  0  0  0  0  0  0  0  0  0
   -3.0196   -4.8765    0.7995 H   0  0  0  0  0  0  0  0  0  0  0  0
   -0.5788   -5.3068    0.7097 H   0  0  0  0  0  0  0  0  0  0  0  0
    0.9669   -3.4696    0.3192 H   0  0  0  0  0  0  0  0  0  0  0  0
    3.8262   -0.7620    2.1021 H   0  0  0  0  0  0  0  0  0  0  0  0
  1  2  2  0
  2  3  1  0
  3  4  2  0
  4  5  1  0
  5  6  1  0
  6  7  1  0
  7  8  2  0
  8  9  1  0
  9 10  2  0
 10 11  1  0
 10 12  1  0
 12 13  1  0
 13 14  2  0
 14 15  1  0
 15 16  1  0
 16 17  2  0
 17 18  1  0
 18 19  1  0
 19 20  2  0
 20 21  1  0
 21 22  1  0
 22 23  1  0
 23 24  1  0
 24 25  2  0
 25 26  1  0
 26 27  2  0
 27 28  1  0
 28 29  2  0
  6 30  2  0
 30 31  1  0
 31  1  1  0
 30  3  1  0
 11  7  1  0
 23 12  2  0
 29 24  1  0
 29  9  1  0
 17 13  1  0
 22 18  2  0
  1 32  1  0
  2 33  1  0
  4 34  1  0
  8 35  1  0
 14 36  1  0
 15 37  1  0
 16 38  1  0
 19 39  1  0
 20 40  1  0
 25 41  1  0
 26 42  1  0
 27 43  1  0
 28 44  1  0
 31 45  1  0
M  END
