
     RDKit          3D

 46 52  0  0  0  0  0  0  0  0999 V2000
   -1.0496    4.2651   -1.7316 Si  0  0  0  0  0  4  0  0  0  0  0  0
    0.3829    3.0954   -1.4827 C   0  0  0  0  0  0  0  0  0  0  0  0
   -0.0031    1.9554   -0.8685 C   0  0  0  0  0  0  0  0  0  0  0  0
    0.8971    0.8600   -0.4429 C   0  0  0  0  0  0  0  0  0  0  0  0
    2.2999    1.0182   -0.4646 C   0  0  0  0  0  0  0  0  0  0  0  0
    3.1526    0.0749    0.1162 C   0  0  0  0  0  0  0  0  0  0  0  0
    2.5814   -1.0218    0.7537 C   0  0  0  0  0  0  0  0  0  0  0  0
    1.1919   -1.1910    0.7716 C   0  0  0  0  0  0  0  0  0  0  0  0
    0.3136   -0.3094    0.1093 C   0  0  0  0  0  0  0  0  0  0  0  0
   -1.1848   -0.5231    0.1051 C   0  0  0  0  0  0  0  0  0  0  0  0
   -1.8083   -1.8146    0.2377 C   0  0  0  0  0  0  0  0  0  0  0  0
   -1.1592   -3.0618    0.0376 C   0  0  0  0  0  0  0  0  0  0  0  0
   -1.7990   -4.2935    0.2230 C   0  0  0  0  0  0  0  0  0  0  0  0
   -3.1333   -4.3339    0.5944 C   0  0  0  0  0  0  0  0  0  0  0  0
   -3.8369   -3.1440    0.7395 C   0  0  0  0  0  0  0  0  0  0  0  0
   -3.1972   -1.8996    0.5370 C   0  0  0  0  0  0  0  0  0  0  0  0
   -3.9800   -0.7216    0.6067 C   0  0  0  0  0  0  0  0  0  0  0  0
   -5.3486   -0.4181    0.8786 C   0  0  0  0  0  0  0  0  0  0  0  0
   -5.4918    0.9352    0.7081 C   0  0  0  0  0  0  0  0  0  0  0  0
   -4.3122    1.4887    0.3439 O   0  0  0  0  0  0  0  0  0  0  0  0
   -3.3773    0.4905    0.2874 C   0  0  0  0  0  0  0  0  0  0  0  0
   -2.0186    0.6273   -0.0270 C   0  0  0  0  0  0  0  0  0  0  0  0
   -1.4513    1.8813   -0.5674 C   0  0  0  0  0  0  0  0  0  0  0  0
   -2.1390    2.9840   -0.9366 C   0  0  0  0  0  0  0  0  0  0  0  0
    4.6054    0.2471    0.1019 C   0  0  0  0  0  0  0  0  0  0  0  0
    5.6212   -0.6870   -0.0248 C   0  0  0  0  0  0  0  0  0  0  0  0
    6.8610   -0.0066    0.0371 C   0  0  0  0  0  0  0  0  0  0  0  0
    6.5826    1.3279    0.2127 C   0  0  0  0  0  0  0  0  0  0  0  0
    5.2208    1.4717    0.2555 N   0  0  0  0  0  0  0  0  0  0  0  0
   -1.3581    4.4786   -3.1662 H   0  0  0  0  0  0  0  0  0  0  0  0
   -0.9121    5.4966   -0.9170 H   0  0  0  0  0  0  0  0  0  0  0  0
    1.3694    3.3901   -1.7971 H   0  0  0  0  0  0  0  0  0  0  0  0
    2.7352    1.8979   -0.9275 H   0  0  0  0  0  0  0  0  0  0  0  0
    3.2065   -1.7460    1.2713 H   0  0  0  0  0  0  0  0  0  0  0  0
    0.8093   -2.0243    1.3560 H   0  0  0  0  0  0  0  0  0  0  0  0
   -0.1331   -3.0983   -0.3216 H   0  0  0  0  0  0  0  0  0  0  0  0
   -1.2497   -5.2177    0.0612 H   0  0  0  0  0  0  0  0  0  0  0  0
   -3.6335   -5.2874    0.7396 H   0  0  0  0  0  0  0  0  0  0  0  0
   -4.8933   -3.1968    0.9900 H   0  0  0  0  0  0  0  0  0  0  0  0
   -6.1356   -1.1055    1.1522 H   0  0  0  0  0  0  0  0  0  0  0  0
   -6.3243    1.6193    0.7948 H   0  0  0  0  0  0  0  0  0  0  0  0
   -3.1988    3.1628   -0.8706 H   0  0  0  0  0  0  0  0  0  0  0  0
    5.4824   -1.7521   -0.1600 H   0  0  0  0  0  0  0  0  0  0  0  0
    7.8478   -0.4452   -0.0352 H   0  0  0  0  0  0  0  0  0  0  0  0
    7.2332    2.1859    0.3157 H   0  0  0  0  0  0  0  0  0  0  0  0
    4.7343    2.3454    0.4035 H   0  0  0  0  0  0  0  0  0  0  0  0
  1  2  1  0
  2  3  2  0
  3  4  1  0
  4  5  2  0
  5  6  1  0
  6  7  2  0
  7  8  1  0
  8  9  2  0
  9 10  1  0
 10 11  2  0
 11 12  1  0
 12 13  2  0
 13 14  1  0
 14 15  2  0
 15 16  1  0
 16 17  2  0
 17 18  1  0
 18 19  2  0
 19 20  1  0
 20 21  1  0
 21 22  2  0
 22 23  1  0
 23 24  2  0
  6 25  1  0
 25 26  2  0
 26 27  1  0
 27 28  2  0
 28 29  1  0
 24  1  1  0
 29 25  1  0
 23  3  1  0
  9  4  1  0
 22 10  1  0
 16 11  1  0
 21 17  1  0
  1 30  1  0
  1 31  1  0
  2 32  1  0
  5 33  1  0
  7 34  1  0
  8 35  1  0
 12 36  1  0
 13 37  1  0
 14 38  1  0
 15 39  1  0
 18 40  1  0
 19 41  1  0
 24 42  1  0
 26 43  1  0
 27 44  1  0
 28 45  1  0
 29 46  1  0
M  END
