
     RDKit          3D

 44 51  0  0  0  0  0  0  0  0999 V2000
    5.7585   -2.5630   -0.4464 C   0  0  0  0  0  0  0  0  0  0  0  0
    6.6525   -1.5026   -0.2676 C   0  0  0  0  0  0  0  0  0  0  0  0
    5.9925   -0.2667   -0.0716 C   0  0  0  0  0  0  0  0  0  0  0  0
    6.4449    0.9881    0.1363 C   0  0  0  0  0  0  0  0  0  0  0  0
    5.0802    2.0200    0.2946 S   0  0  0  0  0  0  0  0  0  0  0  0
    3.9396    0.7326    0.0756 C   0  0  0  0  0  0  0  0  0  0  0  0
    2.5175    0.9495    0.0987 C   0  0  0  0  0  0  0  0  0  0  0  0
    1.8015    2.1142    0.3203 C   0  0  0  0  0  0  0  0  0  0  0  0
    0.4638    1.7374    0.2513 C   0  0  0  0  0  0  0  0  0  0  0  0
   -0.6972    2.5167    0.4129 C   0  0  0  0  0  0  0  0  0  0  0  0
   -0.7740    3.8578    0.6346 C   0  0  0  0  0  0  0  0  0  0  0  0
   -2.1211    4.1206    0.6491 N   0  0  0  0  0  0  0  0  0  0  0  0
   -2.8365    2.9508    0.4306 C   0  0  0  0  0  0  0  0  0  0  0  0
   -1.9556    1.8885    0.3347 C   0  0  0  0  0  0  0  0  0  0  0  0
   -2.2523    0.5025    0.1023 C   0  0  0  0  0  0  0  0  0  0  0  0
   -3.5818   -0.1713    0.1308 C   0  0  0  0  0  0  0  0  0  0  0  0
   -4.7751    0.4044    0.6016 C   0  0  0  0  0  0  0  0  0  0  0  0
   -6.0151   -0.1602    0.6210 N   0  0  0  0  0  0  0  0  0  0  0  0
   -6.1148   -1.4171    0.1662 C   0  0  0  0  0  0  0  0  0  0  0  0
   -5.0325   -2.1425   -0.2807 C   0  0  0  0  0  0  0  0  0  0  0  0
   -3.7581   -1.5245   -0.2812 C   0  0  0  0  0  0  0  0  0  0  0  0
   -2.5450   -2.1548   -0.6696 C   0  0  0  0  0  0  0  0  0  0  0  0
   -2.4905   -3.4554   -1.1234 C   0  0  0  0  0  0  0  0  0  0  0  0
   -0.9043   -3.9233   -1.5542 S   0  0  0  0  0  0  0  0  0  0  0  0
   -0.2792   -2.3824   -1.1372 C   0  0  0  0  0  0  0  0  0  0  0  0
   -1.2343   -1.5329   -0.6212 C   0  0  0  0  0  0  0  0  0  0  0  0
   -1.0003   -0.2054   -0.1929 C   0  0  0  0  0  0  0  0  0  0  0  0
    0.2885    0.4016   -0.0490 C   0  0  0  0  0  0  0  0  0  0  0  0
    1.5899   -0.0616   -0.0993 N   0  0  0  0  0  0  0  0  0  0  0  0
    4.6093   -0.4537   -0.1125 C   0  0  0  0  0  0  0  0  0  0  0  0
    4.0502   -2.1586   -0.3930 S   0  0  0  0  0  0  0  0  0  0  0  0
    6.0136   -3.6011   -0.6128 H   0  0  0  0  0  0  0  0  0  0  0  0
    7.7270   -1.6403   -0.2817 H   0  0  0  0  0  0  0  0  0  0  0  0
    7.4550    1.3663    0.2057 H   0  0  0  0  0  0  0  0  0  0  0  0
    2.2080    3.0960    0.5208 H   0  0  0  0  0  0  0  0  0  0  0  0
   -0.0368    4.6392    0.7537 H   0  0  0  0  0  0  0  0  0  0  0  0
   -2.5348    5.0377    0.7577 H   0  0  0  0  0  0  0  0  0  0  0  0
   -3.9070    3.0395    0.3351 H   0  0  0  0  0  0  0  0  0  0  0  0
   -4.7838    1.3838    1.0615 H   0  0  0  0  0  0  0  0  0  0  0  0
   -7.1125   -1.8448    0.1855 H   0  0  0  0  0  0  0  0  0  0  0  0
   -5.1826   -3.1631   -0.6092 H   0  0  0  0  0  0  0  0  0  0  0  0
   -3.2877   -4.1731   -1.2496 H   0  0  0  0  0  0  0  0  0  0  0  0
    0.7645   -2.2219   -1.3396 H   0  0  0  0  0  0  0  0  0  0  0  0
    1.8561   -1.0269   -0.2072 H   0  0  0  0  0  0  0  0  0  0  0  0
  1  2  2  0
  2  3  1  0
  3  4  2  0
  4  5  1  0
  5  6  1  0
  6  7  1  0
  7  8  2  0
  8  9  1  0
  9 10  1  0
 10 11  2  0
 11 12  1  0
 12 13  1  0
 13 14  2  0
 14 15  1  0
 15 16  1  0
 16 17  2  0
 17 18  1  0
 18 19  2  0
 19 20  1  0
 20 21  2  0
 21 22  1  0
 22 23  2  0
 23 24  1  0
 24 25  1  0
 25 26  2  0
 26 27  1  0
 27 28  1  0
 28 29  1  0
  6 30  2  0
 30 31  1  0
 31  1  1  0
 30  3  1  0
 29  7  1  0
 28  9  2  0
 14 10  1  0
 27 15  2  0
 21 16  1  0
 26 22  1  0
  1 32  1  0
  2 33  1  0
  4 34  1  0
  8 35  1  0
 11 36  1  0
 12 37  1  0
 13 38  1  0
 17 39  1  0
 19 40  1  0
 20 41  1  0
 23 42  1  0
 25 43  1  0
 29 44  1  0
M  END
