
     RDKit          3D

 44 51  0  0  0  0  0  0  0  0999 V2000
    6.2840    0.1910   -1.4230 C   0  0  0  0  0  0  0  0  0  0  0  0
    6.8753   -0.5636   -0.3882 C   0  0  0  0  0  0  0  0  0  0  0  0
    5.8565   -0.8417    0.5540 C   0  0  0  0  0  0  0  0  0  0  0  0
    5.6660   -1.4682    1.7315 C   0  0  0  0  0  0  0  0  0  0  0  0
    3.9918   -1.2853    2.1545 S   0  0  0  0  0  0  0  0  0  0  0  0
    3.6081   -0.3755    0.7193 C   0  0  0  0  0  0  0  0  0  0  0  0
    2.2575    0.0809    0.4317 C   0  0  0  0  0  0  0  0  0  0  0  0
    1.1249   -0.7521    0.5521 C   0  0  0  0  0  0  0  0  0  0  0  0
   -0.2552   -0.4055    0.3107 C   0  0  0  0  0  0  0  0  0  0  0  0
   -1.3037   -1.3803    0.4426 C   0  0  0  0  0  0  0  0  0  0  0  0
   -1.0354   -2.7386    0.7961 C   0  0  0  0  0  0  0  0  0  0  0  0
   -2.0095   -3.7315    0.8609 C   0  0  0  0  0  0  0  0  0  0  0  0
   -3.3044   -3.4081    0.5465 C   0  0  0  0  0  0  0  0  0  0  0  0
   -3.6101   -2.0886    0.2175 C   0  0  0  0  0  0  0  0  0  0  0  0
   -2.6645   -1.0233    0.2048 C   0  0  0  0  0  0  0  0  0  0  0  0
   -3.0158    0.3564   -0.0768 C   0  0  0  0  0  0  0  0  0  0  0  0
   -4.3741    0.8937   -0.1190 C   0  0  0  0  0  0  0  0  0  0  0  0
   -5.9061    0.2012    0.3461 S   0  0  0  0  0  0  0  0  0  0  0  0
   -6.8052    1.5683   -0.1022 C   0  0  0  0  0  0  0  0  0  0  0  0
   -5.9922    2.5757   -0.5473 C   0  0  0  0  0  0  0  0  0  0  0  0
   -4.6153    2.2087   -0.5282 C   0  0  0  0  0  0  0  0  0  0  0  0
   -3.6323    3.0587   -0.8788 N   0  0  0  0  0  0  0  0  0  0  0  0
   -2.3836    2.5856   -0.7205 C   0  0  0  0  0  0  0  0  0  0  0  0
   -1.9804    1.3036   -0.3015 C   0  0  0  0  0  0  0  0  0  0  0  0
   -0.5964    0.9255   -0.0930 C   0  0  0  0  0  0  0  0  0  0  0  0
    0.5453    1.8324   -0.2400 C   0  0  0  0  0  0  0  0  0  0  0  0
    0.5013    3.1274   -0.6041 N   0  0  0  0  0  0  0  0  0  0  0  0
    2.0324    3.7301   -0.6080 S   0  0  0  0  0  0  0  0  0  0  0  0
    2.8694    2.3779   -0.1827 N   0  0  0  0  0  0  0  0  0  0  0  0
    1.9718    1.3963    0.0211 C   0  0  0  0  0  0  0  0  0  0  0  0
    4.7482   -0.2360    0.0026 C   0  0  0  0  0  0  0  0  0  0  0  0
    4.9286    0.4122   -1.1873 N   0  0  0  0  0  0  0  0  0  0  0  0
    6.7326    0.6046   -2.3171 H   0  0  0  0  0  0  0  0  0  0  0  0
    7.9160   -0.8560   -0.3442 H   0  0  0  0  0  0  0  0  0  0  0  0
    6.3575   -2.0055    2.3640 H   0  0  0  0  0  0  0  0  0  0  0  0
    1.3650   -1.7700    0.8543 H   0  0  0  0  0  0  0  0  0  0  0  0
   -0.0328   -3.0844    1.0273 H   0  0  0  0  0  0  0  0  0  0  0  0
   -1.7416   -4.7499    1.1276 H   0  0  0  0  0  0  0  0  0  0  0  0
   -4.0813   -4.1677    0.5440 H   0  0  0  0  0  0  0  0  0  0  0  0
   -4.6371   -1.9330   -0.0858 H   0  0  0  0  0  0  0  0  0  0  0  0
   -7.8820    1.5806   -0.0018 H   0  0  0  0  0  0  0  0  0  0  0  0
   -6.3507    3.5479   -0.8589 H   0  0  0  0  0  0  0  0  0  0  0  0
   -1.6670    3.3571   -0.9766 H   0  0  0  0  0  0  0  0  0  0  0  0
    4.2442    0.9492   -1.7069 H   0  0  0  0  0  0  0  0  0  0  0  0
  1  2  2  0
  2  3  1  0
  3  4  2  0
  4  5  1  0
  5  6  1  0
  6  7  1  0
  7  8  2  0
  8  9  1  0
  9 10  2  0
 10 11  1  0
 11 12  2  0
 12 13  1  0
 13 14  2  0
 14 15  1  0
 15 16  2  0
 16 17  1  0
 17 18  1  0
 18 19  1  0
 19 20  2  0
 20 21  1  0
 21 22  1  0
 22 23  2  0
 23 24  1  0
 24 25  2  0
 25 26  1  0
 26 27  2  0
 27 28  1  0
 28 29  1  0
 29 30  2  0
  6 31  2  0
 31 32  1  0
 32  1  1  0
 31  3  1  0
 30  7  1  0
 25  9  1  0
 30 26  1  0
 15 10  1  0
 24 16  1  0
 21 17  2  0
  1 33  1  0
  2 34  1  0
  4 35  1  0
  8 36  1  0
 11 37  1  0
 12 38  1  0
 13 39  1  0
 14 40  1  0
 19 41  1  0
 20 42  1  0
 23 43  1  0
 32 44  1  0
M  END
