
     RDKit          3D

 42 49  0  0  0  0  0  0  0  0999 V2000
    6.6133   -1.0667   -0.0325 C   0  0  0  0  0  0  0  0  0  0  0  0
    7.1282    0.2305    0.0838 C   0  0  0  0  0  0  0  0  0  0  0  0
    5.9998    1.0604    0.1623 C   0  0  0  0  0  0  0  0  0  0  0  0
    5.6812    2.3660    0.2816 C   0  0  0  0  0  0  0  0  0  0  0  0
    3.9445    2.4824    0.2971 S   0  0  0  0  0  0  0  0  0  0  0  0
    3.7137    0.7667    0.1419 C   0  0  0  0  0  0  0  0  0  0  0  0
    2.4285    0.1411    0.0887 C   0  0  0  0  0  0  0  0  0  0  0  0
    2.1089   -1.2075   -0.0278 C   0  0  0  0  0  0  0  0  0  0  0  0
    0.7176   -1.2469   -0.0309 C   0  0  0  0  0  0  0  0  0  0  0  0
   -0.1931   -2.3229   -0.0796 C   0  0  0  0  0  0  0  0  0  0  0  0
    0.1915   -3.6311   -0.1097 C   0  0  0  0  0  0  0  0  0  0  0  0
   -1.2125   -4.6094   -0.0312 S   0  0  0  0  0  0  0  0  0  0  0  0
   -2.2507   -3.2273    0.0572 C   0  0  0  0  0  0  0  0  0  0  0  0
   -1.5882   -2.0201   -0.0651 C   0  0  0  0  0  0  0  0  0  0  0  0
   -2.2181   -0.7144   -0.0454 C   0  0  0  0  0  0  0  0  0  0  0  0
   -3.6704   -0.3679   -0.1526 C   0  0  0  0  0  0  0  0  0  0  0  0
   -4.6962   -1.2573   -0.5211 C   0  0  0  0  0  0  0  0  0  0  0  0
   -6.0321   -1.0003   -0.5861 N   0  0  0  0  0  0  0  0  0  0  0  0
   -6.4252    0.2494   -0.3027 C   0  0  0  0  0  0  0  0  0  0  0  0
   -5.5437    1.2604    0.0075 C   0  0  0  0  0  0  0  0  0  0  0  0
   -4.1618    0.9578    0.0591 C   0  0  0  0  0  0  0  0  0  0  0  0
   -3.1332    1.9120    0.2856 C   0  0  0  0  0  0  0  0  0  0  0  0
   -3.3750    3.2525    0.4966 C   0  0  0  0  0  0  0  0  0  0  0  0
   -1.9296    4.1464    0.7015 S   0  0  0  0  0  0  0  0  0  0  0  0
   -0.9662    2.7431    0.5039 C   0  0  0  0  0  0  0  0  0  0  0  0
   -1.7194    1.6087    0.2871 C   0  0  0  0  0  0  0  0  0  0  0  0
   -1.1905    0.3132    0.1097 C   0  0  0  0  0  0  0  0  0  0  0  0
    0.1905    0.0116    0.0835 C   0  0  0  0  0  0  0  0  0  0  0  0
    1.2561    0.8699    0.1588 O   0  0  0  0  0  0  0  0  0  0  0  0
    4.9349    0.1941    0.0866 C   0  0  0  0  0  0  0  0  0  0  0  0
    5.2318   -1.1318   -0.0345 O   0  0  0  0  0  0  0  0  0  0  0  0
    7.0967   -2.0312   -0.1215 H   0  0  0  0  0  0  0  0  0  0  0  0
    8.1743    0.5002    0.1053 H   0  0  0  0  0  0  0  0  0  0  0  0
    6.3065    3.2439    0.3595 H   0  0  0  0  0  0  0  0  0  0  0  0
    2.8112   -2.0260   -0.0927 H   0  0  0  0  0  0  0  0  0  0  0  0
    1.1787   -4.0710   -0.1408 H   0  0  0  0  0  0  0  0  0  0  0  0
   -3.2921   -3.4424    0.2281 H   0  0  0  0  0  0  0  0  0  0  0  0
   -4.4790   -2.2629   -0.8588 H   0  0  0  0  0  0  0  0  0  0  0  0
   -7.4950    0.4280   -0.3545 H   0  0  0  0  0  0  0  0  0  0  0  0
   -5.9271    2.2568    0.1884 H   0  0  0  0  0  0  0  0  0  0  0  0
   -4.3145    3.7832    0.5433 H   0  0  0  0  0  0  0  0  0  0  0  0
    0.1056    2.8586    0.5694 H   0  0  0  0  0  0  0  0  0  0  0  0
  1  2  2  0
  2  3  1  0
  3  4  2  0
  4  5  1  0
  5  6  1  0
  6  7  1  0
  7  8  2  0
  8  9  1  0
  9 10  1  0
 10 11  2  0
 11 12  1  0
 12 13  1  0
 13 14  2  0
 14 15  1  0
 15 16  1  0
 16 17  2  0
 17 18  1  0
 18 19  2  0
 19 20  1  0
 20 21  2  0
 21 22  1  0
 22 23  2  0
 23 24  1  0
 24 25  1  0
 25 26  2  0
 26 27  1  0
 27 28  1  0
 28 29  1  0
  6 30  2  0
 30 31  1  0
 31  1  1  0
 30  3  1  0
 29  7  1  0
 28  9  2  0
 14 10  1  0
 27 15  2  0
 21 16  1  0
 26 22  1  0
  1 32  1  0
  2 33  1  0
  4 34  1  0
  8 35  1  0
 11 36  1  0
 13 37  1  0
 17 38  1  0
 19 39  1  0
 20 40  1  0
 23 41  1  0
 25 42  1  0
M  END
