
     RDKit          3D

 39 44  0  0  0  0  0  0  0  0999 V2000
    1.8810    3.6203    0.6480 Si  0  0  0  0  0  4  0  0  0  0  0  0
    0.2855    2.6950    0.4301 C   0  0  0  0  0  0  0  0  0  0  0  0
    0.4847    1.3686    0.2644 C   0  0  0  0  0  0  0  0  0  0  0  0
   -0.5954    0.3559    0.1670 C   0  0  0  0  0  0  0  0  0  0  0  0
   -1.9574    0.7327    0.1345 C   0  0  0  0  0  0  0  0  0  0  0  0
   -3.0051   -0.2029    0.0751 C   0  0  0  0  0  0  0  0  0  0  0  0
   -2.6359   -1.5519    0.0471 C   0  0  0  0  0  0  0  0  0  0  0  0
   -1.2909   -1.9471    0.0692 C   0  0  0  0  0  0  0  0  0  0  0  0
   -0.2356   -1.0150    0.1259 C   0  0  0  0  0  0  0  0  0  0  0  0
    1.2038   -1.4347    0.1059 C   0  0  0  0  0  0  0  0  0  0  0  0
    1.5993   -2.7773    0.0515 C   0  0  0  0  0  0  0  0  0  0  0  0
    2.8583   -3.2638   -0.0375 N   0  0  0  0  0  0  0  0  0  0  0  0
    3.8196   -2.3221   -0.1214 C   0  0  0  0  0  0  0  0  0  0  0  0
    5.2116   -2.5154   -0.2748 C   0  0  0  0  0  0  0  0  0  0  0  0
    5.7884   -1.2706   -0.3532 C   0  0  0  0  0  0  0  0  0  0  0  0
    4.7845   -0.3419   -0.2495 N   0  0  0  0  0  0  0  0  0  0  0  0
    3.5625   -0.9525   -0.0672 C   0  0  0  0  0  0  0  0  0  0  0  0
    2.2477   -0.4747    0.1055 C   0  0  0  0  0  0  0  0  0  0  0  0
    1.9115    0.9563    0.2661 C   0  0  0  0  0  0  0  0  0  0  0  0
    2.7645    1.9776    0.5019 C   0  0  0  0  0  0  0  0  0  0  0  0
   -4.4231    0.2160    0.0449 C   0  0  0  0  0  0  0  0  0  0  0  0
   -4.6892    1.5271    0.0794 N   0  0  0  0  0  0  0  0  0  0  0  0
   -5.9836    1.8348    0.0492 C   0  0  0  0  0  0  0  0  0  0  0  0
   -6.9937    0.9725   -0.0099 N   0  0  0  0  0  0  0  0  0  0  0  0
   -6.6101   -0.3002   -0.0393 C   0  0  0  0  0  0  0  0  0  0  0  0
   -5.3553   -0.7423   -0.0148 N   0  0  0  0  0  0  0  0  0  0  0  0
    2.0273    4.2158    1.9972 H   0  0  0  0  0  0  0  0  0  0  0  0
    2.1911    4.5185   -0.4898 H   0  0  0  0  0  0  0  0  0  0  0  0
   -0.6467    3.2308    0.4918 H   0  0  0  0  0  0  0  0  0  0  0  0
   -2.2217    1.7873    0.1558 H   0  0  0  0  0  0  0  0  0  0  0  0
   -3.4008   -2.3266    0.0011 H   0  0  0  0  0  0  0  0  0  0  0  0
   -1.1086   -3.0170    0.0319 H   0  0  0  0  0  0  0  0  0  0  0  0
    0.8711   -3.5821    0.0752 H   0  0  0  0  0  0  0  0  0  0  0  0
    5.7219   -3.4661   -0.3390 H   0  0  0  0  0  0  0  0  0  0  0  0
    6.8171   -0.9653   -0.4903 H   0  0  0  0  0  0  0  0  0  0  0  0
    4.9266    0.6512   -0.3440 H   0  0  0  0  0  0  0  0  0  0  0  0
    3.8272    1.9691    0.6452 H   0  0  0  0  0  0  0  0  0  0  0  0
   -6.2383    2.8889    0.0754 H   0  0  0  0  0  0  0  0  0  0  0  0
   -7.3936   -1.0488   -0.0878 H   0  0  0  0  0  0  0  0  0  0  0  0
  1  2  1  0
  2  3  2  0
  3  4  1  0
  4  5  2  0
  5  6  1  0
  6  7  2  0
  7  8  1  0
  8  9  2  0
  9 10  1  0
 10 11  2  0
 11 12  1  0
 12 13  2  0
 13 14  1  0
 14 15  2  0
 15 16  1  0
 16 17  1  0
 17 18  2  0
 18 19  1  0
 19 20  2  0
  6 21  1  0
 21 22  2  0
 22 23  1  0
 23 24  2  0
 24 25  1  0
 25 26  2  0
 20  1  1  0
 26 21  1  0
 19  3  1  0
  9  4  1  0
 18 10  1  0
 17 13  1  0
  1 27  1  0
  1 28  1  0
  2 29  1  0
  5 30  1  0
  7 31  1  0
  8 32  1  0
 11 33  1  0
 14 34  1  0
 15 35  1  0
 16 36  1  0
 20 37  1  0
 23 38  1  0
 25 39  1  0
M  END
