
     RDKit          3D

 45 52  0  0  0  0  0  0  0  0999 V2000
    6.5740    1.0077   -1.3415 C   0  0  0  0  0  0  0  0  0  0  0  0
    7.1238    0.0433   -0.4884 C   0  0  0  0  0  0  0  0  0  0  0  0
    6.1354   -0.6408    0.2588 C   0  0  0  0  0  0  0  0  0  0  0  0
    6.1859   -1.6291    1.1799 C   0  0  0  0  0  0  0  0  0  0  0  0
    4.5703   -1.9816    1.6694 S   0  0  0  0  0  0  0  0  0  0  0  0
    3.8956   -0.7830    0.6346 C   0  0  0  0  0  0  0  0  0  0  0  0
    2.4744   -0.5415    0.5561 C   0  0  0  0  0  0  0  0  0  0  0  0
    1.5729   -1.4248   -0.0547 C   0  0  0  0  0  0  0  0  0  0  0  0
    0.1443   -1.1873   -0.1551 C   0  0  0  0  0  0  0  0  0  0  0  0
   -0.7518   -2.1302   -0.7281 C   0  0  0  0  0  0  0  0  0  0  0  0
   -0.3656   -3.3690   -1.1968 C   0  0  0  0  0  0  0  0  0  0  0  0
   -1.6821   -4.2820   -1.8026 S   0  0  0  0  0  0  0  0  0  0  0  0
   -2.7893   -3.0260   -1.4466 C   0  0  0  0  0  0  0  0  0  0  0  0
   -2.1752   -1.9321   -0.8741 C   0  0  0  0  0  0  0  0  0  0  0  0
   -2.8680   -0.7452   -0.5132 C   0  0  0  0  0  0  0  0  0  0  0  0
   -4.2625   -0.5370   -0.7074 C   0  0  0  0  0  0  0  0  0  0  0  0
   -4.8549    0.6939   -0.4143 C   0  0  0  0  0  0  0  0  0  0  0  0
   -6.2239    0.9285   -0.6010 C   0  0  0  0  0  0  0  0  0  0  0  0
   -6.7280    2.1877   -0.3199 C   0  0  0  0  0  0  0  0  0  0  0  0
   -5.9748    3.2136    0.1230 N   0  0  0  0  0  0  0  0  0  0  0  0
   -4.6560    2.9627    0.2959 C   0  0  0  0  0  0  0  0  0  0  0  0
   -4.0407    1.7303    0.0537 C   0  0  0  0  0  0  0  0  0  0  0  0
   -2.6585    1.5048    0.2538 C   0  0  0  0  0  0  0  0  0  0  0  0
   -2.0150    0.2598    0.0428 C   0  0  0  0  0  0  0  0  0  0  0  0
   -0.5621    0.0062    0.3083 C   0  0  0  0  0  0  0  0  0  0  0  0
    0.3923    0.8168    1.0348 C   0  0  0  0  0  0  0  0  0  0  0  0
    0.0591    1.8665    1.8649 C   0  0  0  0  0  0  0  0  0  0  0  0
    1.4209    2.6452    2.5591 S   0  0  0  0  0  0  0  0  0  0  0  0
    2.4922    1.5029    1.8789 C   0  0  0  0  0  0  0  0  0  0  0  0
    1.8265    0.5576    1.1289 C   0  0  0  0  0  0  0  0  0  0  0  0
    4.8752   -0.1447   -0.0757 C   0  0  0  0  0  0  0  0  0  0  0  0
    4.8216    1.1676   -1.3144 S   0  0  0  0  0  0  0  0  0  0  0  0
    7.1146    1.6603   -2.0137 H   0  0  0  0  0  0  0  0  0  0  0  0
    8.1898   -0.1390   -0.4280 H   0  0  0  0  0  0  0  0  0  0  0  0
    7.0318   -2.1622    1.5904 H   0  0  0  0  0  0  0  0  0  0  0  0
    1.9927   -2.3347   -0.4804 H   0  0  0  0  0  0  0  0  0  0  0  0
    0.6141   -3.8224   -1.2235 H   0  0  0  0  0  0  0  0  0  0  0  0
   -3.8297   -3.1817   -1.6906 H   0  0  0  0  0  0  0  0  0  0  0  0
   -4.8851   -1.3325   -1.1070 H   0  0  0  0  0  0  0  0  0  0  0  0
   -6.8885    0.1517   -0.9636 H   0  0  0  0  0  0  0  0  0  0  0  0
   -7.7830    2.4104   -0.4520 H   0  0  0  0  0  0  0  0  0  0  0  0
   -4.0840    3.8150    0.6543 H   0  0  0  0  0  0  0  0  0  0  0  0
   -2.0703    2.3740    0.5288 H   0  0  0  0  0  0  0  0  0  0  0  0
   -0.9063    2.2430    2.1587 H   0  0  0  0  0  0  0  0  0  0  0  0
    3.5479    1.5772    2.1018 H   0  0  0  0  0  0  0  0  0  0  0  0
  1  2  2  0
  2  3  1  0
  3  4  2  0
  4  5  1  0
  5  6  1  0
  6  7  1  0
  7  8  2  0
  8  9  1  0
  9 10  1  0
 10 11  2  0
 11 12  1  0
 12 13  1  0
 13 14  2  0
 14 15  1  0
 15 16  2  0
 16 17  1  0
 17 18  2  0
 18 19  1  0
 19 20  2  0
 20 21  1  0
 21 22  2  0
 22 23  1  0
 23 24  2  0
 24 25  1  0
 25 26  1  0
 26 27  2  0
 27 28  1  0
 28 29  1  0
 29 30  2  0
  6 31  2  0
 31 32  1  0
 32  1  1  0
 31  3  1  0
 30  7  1  0
 25  9  2  0
 30 26  1  0
 14 10  1  0
 24 15  1  0
 22 17  1  0
  1 33  1  0
  2 34  1  0
  4 35  1  0
  8 36  1  0
 11 37  1  0
 13 38  1  0
 16 39  1  0
 18 40  1  0
 19 41  1  0
 21 42  1  0
 23 43  1  0
 27 44  1  0
 29 45  1  0
M  END
