
     RDKit          3D

 45 52  0  0  0  0  0  0  0  0999 V2000
   -6.1970   -1.9487    1.1863 C   0  0  0  0  0  0  0  0  0  0  0  0
   -7.1422   -1.1943    0.4785 C   0  0  0  0  0  0  0  0  0  0  0  0
   -6.3890   -0.2475   -0.2328 C   0  0  0  0  0  0  0  0  0  0  0  0
   -6.5524    0.7771   -1.0962 C   0  0  0  0  0  0  0  0  0  0  0  0
   -4.9707    1.4038   -1.4758 S   0  0  0  0  0  0  0  0  0  0  0  0
   -4.1566    0.2718   -0.4473 C   0  0  0  0  0  0  0  0  0  0  0  0
   -2.7233    0.2310   -0.2848 C   0  0  0  0  0  0  0  0  0  0  0  0
   -1.8184    0.0925   -1.3577 C   0  0  0  0  0  0  0  0  0  0  0  0
   -0.3881    0.0424   -1.2328 C   0  0  0  0  0  0  0  0  0  0  0  0
    0.3638   -0.0055   -2.4032 C   0  0  0  0  0  0  0  0  0  0  0  0
    1.7667   -0.0273   -2.3932 C   0  0  0  0  0  0  0  0  0  0  0  0
    2.5370   -0.1145   -1.2187 C   0  0  0  0  0  0  0  0  0  0  0  0
    4.0243   -0.1780   -1.2811 C   0  0  0  0  0  0  0  0  0  0  0  0
    4.7876   -0.0088   -2.4517 C   0  0  0  0  0  0  0  0  0  0  0  0
    6.1452   -0.0630   -2.5610 N   0  0  0  0  0  0  0  0  0  0  0  0
    6.8430   -0.3050   -1.4374 C   0  0  0  0  0  0  0  0  0  0  0  0
    6.2520   -0.4959   -0.2085 C   0  0  0  0  0  0  0  0  0  0  0  0
    4.8438   -0.4257   -0.1426 C   0  0  0  0  0  0  0  0  0  0  0  0
    4.0599   -0.6336    1.0024 C   0  0  0  0  0  0  0  0  0  0  0  0
    4.4995   -1.0259    2.2412 C   0  0  0  0  0  0  0  0  0  0  0  0
    3.4299   -1.2570    3.0521 O   0  0  0  0  0  0  0  0  0  0  0  0
    2.3073   -0.9980    2.3208 C   0  0  0  0  0  0  0  0  0  0  0  0
    2.6402   -0.5233    1.0741 C   0  0  0  0  0  0  0  0  0  0  0  0
    1.7699   -0.1691    0.0045 C   0  0  0  0  0  0  0  0  0  0  0  0
    0.3189    0.0566    0.0106 C   0  0  0  0  0  0  0  0  0  0  0  0
   -0.6058    0.3500    1.0753 C   0  0  0  0  0  0  0  0  0  0  0  0
   -0.2306    0.8082    2.3187 C   0  0  0  0  0  0  0  0  0  0  0  0
   -1.5659    1.0602    3.3644 S   0  0  0  0  0  0  0  0  0  0  0  0
   -2.6844    0.7245    2.1134 C   0  0  0  0  0  0  0  0  0  0  0  0
   -2.0518    0.4128    0.9299 C   0  0  0  0  0  0  0  0  0  0  0  0
   -5.0888   -0.5227    0.1162 C   0  0  0  0  0  0  0  0  0  0  0  0
   -4.8869   -1.5548    0.9822 O   0  0  0  0  0  0  0  0  0  0  0  0
   -6.2999   -2.7859    1.8648 H   0  0  0  0  0  0  0  0  0  0  0  0
   -8.2128   -1.3381    0.4967 H   0  0  0  0  0  0  0  0  0  0  0  0
   -7.4461    1.2010   -1.5313 H   0  0  0  0  0  0  0  0  0  0  0  0
   -2.2459    0.0190   -2.3606 H   0  0  0  0  0  0  0  0  0  0  0  0
   -0.1320    0.0084   -3.3742 H   0  0  0  0  0  0  0  0  0  0  0  0
    2.2398   -0.0258   -3.3728 H   0  0  0  0  0  0  0  0  0  0  0  0
    4.3174    0.2038   -3.4074 H   0  0  0  0  0  0  0  0  0  0  0  0
    7.9215   -0.3445   -1.5573 H   0  0  0  0  0  0  0  0  0  0  0  0
    6.8610   -0.6939    0.6648 H   0  0  0  0  0  0  0  0  0  0  0  0
    5.4644   -1.2305    2.6826 H   0  0  0  0  0  0  0  0  0  0  0  0
    1.3833   -1.2282    2.8314 H   0  0  0  0  0  0  0  0  0  0  0  0
    0.7536    1.0369    2.6981 H   0  0  0  0  0  0  0  0  0  0  0  0
   -3.7416    0.8186    2.3192 H   0  0  0  0  0  0  0  0  0  0  0  0
  1  2  2  0
  2  3  1  0
  3  4  2  0
  4  5  1  0
  5  6  1  0
  6  7  1  0
  7  8  2  0
  8  9  1  0
  9 10  2  0
 10 11  1  0
 11 12  2  0
 12 13  1  0
 13 14  2  0
 14 15  1  0
 15 16  2  0
 16 17  1  0
 17 18  2  0
 18 19  1  0
 19 20  2  0
 20 21  1  0
 21 22  1  0
 22 23  2  0
 23 24  1  0
 24 25  2  0
 25 26  1  0
 26 27  2  0
 27 28  1  0
 28 29  1  0
 29 30  2  0
  6 31  2  0
 31 32  1  0
 32  1  1  0
 31  3  1  0
 30  7  1  0
 25  9  1  0
 30 26  1  0
 24 12  1  0
 18 13  1  0
 23 19  1  0
  1 33  1  0
  2 34  1  0
  4 35  1  0
  8 36  1  0
 10 37  1  0
 11 38  1  0
 14 39  1  0
 16 40  1  0
 17 41  1  0
 20 42  1  0
 22 43  1  0
 27 44  1  0
 29 45  1  0
M  END
