
     RDKit          3D

 40 45  0  0  0  0  0  0  0  0999 V2000
    1.2853    3.8140    1.0763 Si  0  0  0  0  0  4  0  0  0  0  0  0
   -0.2027    2.7723    0.6750 C   0  0  0  0  0  0  0  0  0  0  0  0
    0.1387    1.5078    0.3449 C   0  0  0  0  0  0  0  0  0  0  0  0
   -0.8269    0.4042    0.1471 C   0  0  0  0  0  0  0  0  0  0  0  0
   -2.2216    0.6154    0.1064 C   0  0  0  0  0  0  0  0  0  0  0  0
   -3.1449   -0.4405   -0.0230 C   0  0  0  0  0  0  0  0  0  0  0  0
   -2.6144   -1.7347   -0.1120 C   0  0  0  0  0  0  0  0  0  0  0  0
   -1.2331   -1.9604   -0.0867 C   0  0  0  0  0  0  0  0  0  0  0  0
   -0.3099   -0.9043    0.0349 C   0  0  0  0  0  0  0  0  0  0  0  0
    1.1582   -1.1584   -0.0088 C   0  0  0  0  0  0  0  0  0  0  0  0
    1.5037   -2.4681   -0.1367 N   0  0  0  0  0  0  0  0  0  0  0  0
    2.8045   -2.7666   -0.3086 C   0  0  0  0  0  0  0  0  0  0  0  0
    3.8146   -1.8234   -0.4281 C   0  0  0  0  0  0  0  0  0  0  0  0
    5.1365   -2.2175   -0.6824 C   0  0  0  0  0  0  0  0  0  0  0  0
    6.0960   -1.2417   -0.8591 C   0  0  0  0  0  0  0  0  0  0  0  0
    5.8226    0.0719   -0.8203 N   0  0  0  0  0  0  0  0  0  0  0  0
    4.5344    0.4212   -0.5650 C   0  0  0  0  0  0  0  0  0  0  0  0
    3.4680   -0.4624   -0.3103 C   0  0  0  0  0  0  0  0  0  0  0  0
    2.1130   -0.1166   -0.0007 C   0  0  0  0  0  0  0  0  0  0  0  0
    1.6012    1.2440    0.3276 C   0  0  0  0  0  0  0  0  0  0  0  0
    2.3308    2.2939    0.7661 C   0  0  0  0  0  0  0  0  0  0  0  0
   -4.6031   -0.1962   -0.0595 C   0  0  0  0  0  0  0  0  0  0  0  0
   -5.4109   -1.2552   -0.1891 N   0  0  0  0  0  0  0  0  0  0  0  0
   -6.7097   -0.9677   -0.2155 C   0  0  0  0  0  0  0  0  0  0  0  0
   -7.2462    0.2455   -0.1262 N   0  0  0  0  0  0  0  0  0  0  0  0
   -6.3496    1.2190   -0.0007 C   0  0  0  0  0  0  0  0  0  0  0  0
   -5.0279    1.0692    0.0395 N   0  0  0  0  0  0  0  0  0  0  0  0
    1.5292    4.8761    0.0718 H   0  0  0  0  0  0  0  0  0  0  0  0
    1.3199    4.2405    2.4952 H   0  0  0  0  0  0  0  0  0  0  0  0
   -1.1888    3.1882    0.7996 H   0  0  0  0  0  0  0  0  0  0  0  0
   -2.6110    1.6284    0.1786 H   0  0  0  0  0  0  0  0  0  0  0  0
   -3.2758   -2.5942   -0.2119 H   0  0  0  0  0  0  0  0  0  0  0  0
   -0.8790   -2.9868   -0.1763 H   0  0  0  0  0  0  0  0  0  0  0  0
    3.0099   -3.8316   -0.3858 H   0  0  0  0  0  0  0  0  0  0  0  0
    5.4150   -3.2637   -0.7572 H   0  0  0  0  0  0  0  0  0  0  0  0
    7.1321   -1.4984   -1.0593 H   0  0  0  0  0  0  0  0  0  0  0  0
    4.3843    1.4930   -0.6243 H   0  0  0  0  0  0  0  0  0  0  0  0
    3.3837    2.3547    0.9776 H   0  0  0  0  0  0  0  0  0  0  0  0
   -7.3950   -1.8021   -0.3197 H   0  0  0  0  0  0  0  0  0  0  0  0
   -6.7313    2.2315    0.0762 H   0  0  0  0  0  0  0  0  0  0  0  0
  1  2  1  0
  2  3  2  0
  3  4  1  0
  4  5  2  0
  5  6  1  0
  6  7  2  0
  7  8  1  0
  8  9  2  0
  9 10  1  0
 10 11  2  0
 11 12  1  0
 12 13  2  0
 13 14  1  0
 14 15  2  0
 15 16  1  0
 16 17  2  0
 17 18  1  0
 18 19  2  0
 19 20  1  0
 20 21  2  0
  6 22  1  0
 22 23  2  0
 23 24  1  0
 24 25  2  0
 25 26  1  0
 26 27  2  0
 21  1  1  0
 27 22  1  0
 20  3  1  0
  9  4  1  0
 19 10  1  0
 18 13  1  0
  1 28  1  0
  1 29  1  0
  2 30  1  0
  5 31  1  0
  7 32  1  0
  8 33  1  0
 12 34  1  0
 14 35  1  0
 15 36  1  0
 17 37  1  0
 21 38  1  0
 24 39  1  0
 26 40  1  0
M  END
