
     RDKit          3D

 38 44  0  0  0  0  0  0  0  0999 V2000
   -5.0380    0.2514   -2.0170 C   0  0  0  0  0  0  0  0  0  0  0  0
   -5.9643    0.4253   -0.9654 C   0  0  0  0  0  0  0  0  0  0  0  0
   -5.2209    0.4681    0.2395 C   0  0  0  0  0  0  0  0  0  0  0  0
   -5.3791    0.6077    1.5715 C   0  0  0  0  0  0  0  0  0  0  0  0
   -3.7973    0.5464    2.2972 S   0  0  0  0  0  0  0  0  0  0  0  0
   -2.9927    0.3163    0.7807 C   0  0  0  0  0  0  0  0  0  0  0  0
   -1.5621    0.1823    0.6656 C   0  0  0  0  0  0  0  0  0  0  0  0
   -0.6370    1.1901    1.0247 C   0  0  0  0  0  0  0  0  0  0  0  0
    0.7941    1.0721    0.8925 C   0  0  0  0  0  0  0  0  0  0  0  0
    1.6249    2.1218    1.2685 C   0  0  0  0  0  0  0  0  0  0  0  0
    2.9715    2.1447    1.1944 N   0  0  0  0  0  0  0  0  0  0  0  0
    3.5364    1.0168    0.7035 C   0  0  0  0  0  0  0  0  0  0  0  0
    4.9246    0.8461    0.5498 C   0  0  0  0  0  0  0  0  0  0  0  0
    6.0138    1.6322    0.8018 O   0  0  0  0  0  0  0  0  0  0  0  0
    7.0849    0.8806    0.4331 C   0  0  0  0  0  0  0  0  0  0  0  0
    6.7271   -0.3549   -0.0457 C   0  0  0  0  0  0  0  0  0  0  0  0
    5.3125   -0.3467    0.0429 C   0  0  0  0  0  0  0  0  0  0  0  0
    3.9474   -1.3546   -0.2835 S   0  0  0  0  0  0  0  0  0  0  0  0
    2.8453   -0.1257    0.2828 C   0  0  0  0  0  0  0  0  0  0  0  0
    1.4404   -0.1003    0.3781 C   0  0  0  0  0  0  0  0  0  0  0  0
    0.5094   -1.0971    0.0346 C   0  0  0  0  0  0  0  0  0  0  0  0
    0.7321   -2.3567   -0.4700 C   0  0  0  0  0  0  0  0  0  0  0  0
   -0.4904   -2.9764   -0.6222 N   0  0  0  0  0  0  0  0  0  0  0  0
   -1.5008   -2.1313   -0.2305 C   0  0  0  0  0  0  0  0  0  0  0  0
   -0.9153   -0.9553    0.1739 C   0  0  0  0  0  0  0  0  0  0  0  0
   -3.9244    0.3125   -0.1977 C   0  0  0  0  0  0  0  0  0  0  0  0
   -3.7292    0.1810   -1.5434 N   0  0  0  0  0  0  0  0  0  0  0  0
   -5.2129    0.1737   -3.0825 H   0  0  0  0  0  0  0  0  0  0  0  0
   -7.0362    0.5110   -1.0846 H   0  0  0  0  0  0  0  0  0  0  0  0
   -6.2701    0.7442    2.1665 H   0  0  0  0  0  0  0  0  0  0  0  0
   -1.0420    2.1235    1.4223 H   0  0  0  0  0  0  0  0  0  0  0  0
    1.2025    3.0424    1.6690 H   0  0  0  0  0  0  0  0  0  0  0  0
    8.0422    1.3657    0.5720 H   0  0  0  0  0  0  0  0  0  0  0  0
    7.3788   -1.1383   -0.4022 H   0  0  0  0  0  0  0  0  0  0  0  0
    1.6276   -2.9002   -0.7316 H   0  0  0  0  0  0  0  0  0  0  0  0
   -0.6219   -3.9215   -0.9604 H   0  0  0  0  0  0  0  0  0  0  0  0
   -2.5324   -2.4572   -0.2656 H   0  0  0  0  0  0  0  0  0  0  0  0
   -2.8487    0.0601   -2.0307 H   0  0  0  0  0  0  0  0  0  0  0  0
  1  2  2  0
  2  3  1  0
  3  4  2  0
  4  5  1  0
  5  6  1  0
  6  7  1  0
  7  8  2  0
  8  9  1  0
  9 10  2  0
 10 11  1  0
 11 12  2  0
 12 13  1  0
 13 14  1  0
 14 15  1  0
 15 16  2  0
 16 17  1  0
 17 18  1  0
 18 19  1  0
 19 20  2  0
 20 21  1  0
 21 22  2  0
 22 23  1  0
 23 24  1  0
 24 25  2  0
  6 26  2  0
 26 27  1  0
 27  1  1  0
 26  3  1  0
 25  7  1  0
 20  9  1  0
 25 21  1  0
 19 12  1  0
 17 13  2  0
  1 28  1  0
  2 29  1  0
  4 30  1  0
  8 31  1  0
 10 32  1  0
 15 33  1  0
 16 34  1  0
 22 35  1  0
 23 36  1  0
 24 37  1  0
 27 38  1  0
M  END
