
     RDKit          3D

 44 51  0  0  0  0  0  0  0  0999 V2000
    6.4432    1.1590    2.3512 C   0  0  0  0  0  0  0  0  0  0  0  0
    7.4847    0.5895    1.6060 C   0  0  0  0  0  0  0  0  0  0  0  0
    6.8523   -0.0326    0.5183 C   0  0  0  0  0  0  0  0  0  0  0  0
    7.1454   -0.7471   -0.5893 C   0  0  0  0  0  0  0  0  0  0  0  0
    5.6435   -1.0989   -1.4037 S   0  0  0  0  0  0  0  0  0  0  0  0
    4.6859   -0.2914   -0.2099 C   0  0  0  0  0  0  0  0  0  0  0  0
    3.2466   -0.2034   -0.2653 C   0  0  0  0  0  0  0  0  0  0  0  0
    2.5598    0.4656   -1.2908 C   0  0  0  0  0  0  0  0  0  0  0  0
    1.1445    0.5711   -1.3555 C   0  0  0  0  0  0  0  0  0  0  0  0
    0.5666    1.2596   -2.4105 C   0  0  0  0  0  0  0  0  0  0  0  0
   -0.7587    1.4364   -2.5931 N   0  0  0  0  0  0  0  0  0  0  0  0
   -1.6069    0.9171   -1.6985 C   0  0  0  0  0  0  0  0  0  0  0  0
   -2.9643    1.1276   -1.9310 C   0  0  0  0  0  0  0  0  0  0  0  0
   -3.9740    0.6483   -1.0879 C   0  0  0  0  0  0  0  0  0  0  0  0
   -5.3722    0.8975   -1.3792 C   0  0  0  0  0  0  0  0  0  0  0  0
   -6.4653    0.4575   -0.5921 C   0  0  0  0  0  0  0  0  0  0  0  0
   -6.0122   -0.2523    0.5082 C   0  0  0  0  0  0  0  0  0  0  0  0
   -6.7969   -0.8208    1.4773 C   0  0  0  0  0  0  0  0  0  0  0  0
   -5.9443   -1.4248    2.3779 N   0  0  0  0  0  0  0  0  0  0  0  0
   -4.6320   -1.2451    1.9898 C   0  0  0  0  0  0  0  0  0  0  0  0
   -4.6490   -0.5162    0.8256 C   0  0  0  0  0  0  0  0  0  0  0  0
   -3.5453   -0.0850    0.0516 C   0  0  0  0  0  0  0  0  0  0  0  0
   -2.1737   -0.3091    0.3048 C   0  0  0  0  0  0  0  0  0  0  0  0
   -1.1761    0.1879   -0.5666 C   0  0  0  0  0  0  0  0  0  0  0  0
    0.2499    0.0128   -0.3967 C   0  0  0  0  0  0  0  0  0  0  0  0
    0.9266   -0.6971    0.6777 C   0  0  0  0  0  0  0  0  0  0  0  0
    0.3471   -1.3285    1.7157 N   0  0  0  0  0  0  0  0  0  0  0  0
    1.5455   -1.9802    2.6460 S   0  0  0  0  0  0  0  0  0  0  0  0
    2.8772   -1.5190    1.7882 N   0  0  0  0  0  0  0  0  0  0  0  0
    2.4421   -0.8044    0.7348 C   0  0  0  0  0  0  0  0  0  0  0  0
    5.5164    0.2159    0.7222 C   0  0  0  0  0  0  0  0  0  0  0  0
    5.1833    0.9512    1.8193 O   0  0  0  0  0  0  0  0  0  0  0  0
    6.4397    1.7344    3.2679 H   0  0  0  0  0  0  0  0  0  0  0  0
    8.5372    0.6385    1.8444 H   0  0  0  0  0  0  0  0  0  0  0  0
    8.0934   -1.0810   -0.9861 H   0  0  0  0  0  0  0  0  0  0  0  0
    3.1569    0.9377   -2.0747 H   0  0  0  0  0  0  0  0  0  0  0  0
    1.1749    1.7185   -3.1879 H   0  0  0  0  0  0  0  0  0  0  0  0
   -3.2379    1.6964   -2.8189 H   0  0  0  0  0  0  0  0  0  0  0  0
   -5.6127    1.4707   -2.2771 H   0  0  0  0  0  0  0  0  0  0  0  0
   -7.4977    0.6598   -0.8364 H   0  0  0  0  0  0  0  0  0  0  0  0
   -7.8682   -0.8586    1.6199 H   0  0  0  0  0  0  0  0  0  0  0  0
   -6.2381   -1.9278    3.2050 H   0  0  0  0  0  0  0  0  0  0  0  0
   -3.8253   -1.6543    2.5824 H   0  0  0  0  0  0  0  0  0  0  0  0
   -1.9116   -0.8754    1.1912 H   0  0  0  0  0  0  0  0  0  0  0  0
  1  2  2  0
  2  3  1  0
  3  4  2  0
  4  5  1  0
  5  6  1  0
  6  7  1  0
  7  8  2  0
  8  9  1  0
  9 10  2  0
 10 11  1  0
 11 12  2  0
 12 13  1  0
 13 14  2  0
 14 15  1  0
 15 16  2  0
 16 17  1  0
 17 18  2  0
 18 19  1  0
 19 20  1  0
 20 21  2  0
 21 22  1  0
 22 23  2  0
 23 24  1  0
 24 25  2  0
 25 26  1  0
 26 27  2  0
 27 28  1  0
 28 29  1  0
 29 30  2  0
  6 31  2  0
 31 32  1  0
 32  1  1  0
 31  3  1  0
 30  7  1  0
 25  9  1  0
 30 26  1  0
 24 12  1  0
 22 14  1  0
 21 17  1  0
  1 33  1  0
  2 34  1  0
  4 35  1  0
  8 36  1  0
 10 37  1  0
 13 38  1  0
 15 39  1  0
 16 40  1  0
 18 41  1  0
 19 42  1  0
 20 43  1  0
 23 44  1  0
M  END
