
     RDKit          3D

 38 44  0  0  0  0  0  0  0  0999 V2000
   -5.2201    0.6377    2.0598 C   0  0  0  0  0  0  0  0  0  0  0  0
   -6.1486    0.2089    1.0863 C   0  0  0  0  0  0  0  0  0  0  0  0
   -5.4015   -0.2375   -0.0309 C   0  0  0  0  0  0  0  0  0  0  0  0
   -5.5603   -0.7515   -1.2676 C   0  0  0  0  0  0  0  0  0  0  0  0
   -3.9738   -0.9873   -1.9459 S   0  0  0  0  0  0  0  0  0  0  0  0
   -3.1664   -0.4000   -0.5320 C   0  0  0  0  0  0  0  0  0  0  0  0
   -1.7302   -0.3277   -0.4247 C   0  0  0  0  0  0  0  0  0  0  0  0
   -0.9375    0.5834   -1.1703 C   0  0  0  0  0  0  0  0  0  0  0  0
    0.4690    0.7115   -1.0897 C   0  0  0  0  0  0  0  0  0  0  0  0
    1.0566    1.6360   -1.8672 N   0  0  0  0  0  0  0  0  0  0  0  0
    2.4030    1.8199   -1.8474 C   0  0  0  0  0  0  0  0  0  0  0  0
    3.1998    1.0497   -1.0108 C   0  0  0  0  0  0  0  0  0  0  0  0
    4.5696    0.9267   -0.6982 C   0  0  0  0  0  0  0  0  0  0  0  0
    5.8165    1.4191   -0.9812 N   0  0  0  0  0  0  0  0  0  0  0  0
    6.7243    0.7291   -0.2018 C   0  0  0  0  0  0  0  0  0  0  0  0
    6.0680   -0.2057    0.5816 C   0  0  0  0  0  0  0  0  0  0  0  0
    4.7192   -0.0395    0.2308 C   0  0  0  0  0  0  0  0  0  0  0  0
    3.5217   -0.5812    0.5673 O   0  0  0  0  0  0  0  0  0  0  0  0
    2.6015    0.0906   -0.1982 C   0  0  0  0  0  0  0  0  0  0  0  0
    1.2249   -0.1134   -0.2072 C   0  0  0  0  0  0  0  0  0  0  0  0
    0.4713   -1.0338    0.5434 C   0  0  0  0  0  0  0  0  0  0  0  0
    0.9808   -1.9328    1.4510 C   0  0  0  0  0  0  0  0  0  0  0  0
   -0.2525   -2.8983    2.1567 S   0  0  0  0  0  0  0  0  0  0  0  0
   -1.4821   -2.1224    1.2449 C   0  0  0  0  0  0  0  0  0  0  0  0
   -0.9683   -1.1364    0.4340 C   0  0  0  0  0  0  0  0  0  0  0  0
   -4.1004   -0.0394    0.3747 C   0  0  0  0  0  0  0  0  0  0  0  0
   -3.9060    0.4892    1.6194 N   0  0  0  0  0  0  0  0  0  0  0  0
   -5.3971    1.0458    3.0469 H   0  0  0  0  0  0  0  0  0  0  0  0
   -7.2247    0.2302    1.1969 H   0  0  0  0  0  0  0  0  0  0  0  0
   -6.4548   -0.9985   -1.8204 H   0  0  0  0  0  0  0  0  0  0  0  0
   -1.4496    1.2521   -1.8658 H   0  0  0  0  0  0  0  0  0  0  0  0
    2.7919    2.5853   -2.5091 H   0  0  0  0  0  0  0  0  0  0  0  0
    6.0041    2.1575   -1.6490 H   0  0  0  0  0  0  0  0  0  0  0  0
    7.7786    0.9660   -0.2726 H   0  0  0  0  0  0  0  0  0  0  0  0
    6.5016   -0.8950    1.2913 H   0  0  0  0  0  0  0  0  0  0  0  0
    2.0061   -2.0973    1.7517 H   0  0  0  0  0  0  0  0  0  0  0  0
   -2.5085   -2.4445    1.3621 H   0  0  0  0  0  0  0  0  0  0  0  0
   -3.0259    0.7035    2.0736 H   0  0  0  0  0  0  0  0  0  0  0  0
  1  2  2  0
  2  3  1  0
  3  4  2  0
  4  5  1  0
  5  6  1  0
  6  7  1  0
  7  8  2  0
  8  9  1  0
  9 10  2  0
 10 11  1  0
 11 12  2  0
 12 13  1  0
 13 14  1  0
 14 15  1  0
 15 16  2  0
 16 17  1  0
 17 18  1  0
 18 19  1  0
 19 20  2  0
 20 21  1  0
 21 22  2  0
 22 23  1  0
 23 24  1  0
 24 25  2  0
  6 26  2  0
 26 27  1  0
 27  1  1  0
 26  3  1  0
 25  7  1  0
 20  9  1  0
 25 21  1  0
 19 12  1  0
 17 13  2  0
  1 28  1  0
  2 29  1  0
  4 30  1  0
  8 31  1  0
 11 32  1  0
 14 33  1  0
 15 34  1  0
 16 35  1  0
 22 36  1  0
 24 37  1  0
 27 38  1  0
M  END
