
     RDKit          3D

 47 54  0  0  0  0  0  0  0  0999 V2000
   -0.4035    3.9499   -2.4122 Si  0  0  0  0  0  4  0  0  0  0  0  0
    0.7517    2.6321   -1.7760 C   0  0  0  0  0  0  0  0  0  0  0  0
    0.0844    1.6446   -1.1396 C   0  0  0  0  0  0  0  0  0  0  0  0
    0.7048    0.4691   -0.5071 C   0  0  0  0  0  0  0  0  0  0  0  0
    2.1014    0.3192   -0.4187 C   0  0  0  0  0  0  0  0  0  0  0  0
    2.6643   -0.7695    0.2436 C   0  0  0  0  0  0  0  0  0  0  0  0
    1.7779   -1.6740    0.7992 C   0  0  0  0  0  0  0  0  0  0  0  0
    0.4294   -1.5647    0.7282 N   0  0  0  0  0  0  0  0  0  0  0  0
   -0.1231   -0.5173    0.0648 C   0  0  0  0  0  0  0  0  0  0  0  0
   -1.6362   -0.4363    0.0374 C   0  0  0  0  0  0  0  0  0  0  0  0
   -2.5084   -1.5016    0.5061 C   0  0  0  0  0  0  0  0  0  0  0  0
   -2.1141   -2.8129    0.8993 C   0  0  0  0  0  0  0  0  0  0  0  0
   -3.0074   -3.7898    1.3622 C   0  0  0  0  0  0  0  0  0  0  0  0
   -4.3585   -3.5105    1.4480 C   0  0  0  0  0  0  0  0  0  0  0  0
   -4.8143   -2.2602    1.0542 C   0  0  0  0  0  0  0  0  0  0  0  0
   -3.9141   -1.2752    0.5808 C   0  0  0  0  0  0  0  0  0  0  0  0
   -4.4667   -0.0403    0.1691 C   0  0  0  0  0  0  0  0  0  0  0  0
   -5.7798    0.5219    0.1138 C   0  0  0  0  0  0  0  0  0  0  0  0
   -5.6476    1.7767   -0.4206 C   0  0  0  0  0  0  0  0  0  0  0  0
   -4.3494    2.0272   -0.7021 O   0  0  0  0  0  0  0  0  0  0  0  0
   -3.6142    0.9277   -0.3466 C   0  0  0  0  0  0  0  0  0  0  0  0
   -2.2237    0.7747   -0.4613 C   0  0  0  0  0  0  0  0  0  0  0  0
   -1.3817    1.8177   -1.0948 C   0  0  0  0  0  0  0  0  0  0  0  0
   -1.8035    2.9466   -1.7065 C   0  0  0  0  0  0  0  0  0  0  0  0
    4.1041   -0.9405    0.3521 C   0  0  0  0  0  0  0  0  0  0  0  0
    4.9053   -2.3682   -0.1926 S   0  0  0  0  0  0  0  0  0  0  0  0
    6.4630   -1.7829    0.2528 C   0  0  0  0  0  0  0  0  0  0  0  0
    6.3065   -0.5533    0.7912 C   0  0  0  0  0  0  0  0  0  0  0  0
    7.2138    0.3890    1.3312 C   0  0  0  0  0  0  0  0  0  0  0  0
    6.5718    1.5460    1.7873 C   0  0  0  0  0  0  0  0  0  0  0  0
    4.8231    1.5923    1.6045 S   0  0  0  0  0  0  0  0  0  0  0  0
    5.0078   -0.0481    0.8662 C   0  0  0  0  0  0  0  0  0  0  0  0
   -0.2138    5.2468   -1.7192 H   0  0  0  0  0  0  0  0  0  0  0  0
   -0.4257    4.0093   -3.8936 H   0  0  0  0  0  0  0  0  0  0  0  0
    1.8115    2.7336   -1.9384 H   0  0  0  0  0  0  0  0  0  0  0  0
    2.7616    1.0589   -0.8616 H   0  0  0  0  0  0  0  0  0  0  0  0
    2.1264   -2.5453    1.3481 H   0  0  0  0  0  0  0  0  0  0  0  0
   -1.0787   -3.1302    0.8344 H   0  0  0  0  0  0  0  0  0  0  0  0
   -2.6311   -4.7686    1.6488 H   0  0  0  0  0  0  0  0  0  0  0  0
   -5.0545   -4.2629    1.8070 H   0  0  0  0  0  0  0  0  0  0  0  0
   -5.8817   -2.0646    1.1137 H   0  0  0  0  0  0  0  0  0  0  0  0
   -6.7080    0.0649    0.4240 H   0  0  0  0  0  0  0  0  0  0  0  0
   -6.3419    2.5714   -0.6546 H   0  0  0  0  0  0  0  0  0  0  0  0
   -2.8104    3.3030   -1.8392 H   0  0  0  0  0  0  0  0  0  0  0  0
    7.3568   -2.3697    0.0943 H   0  0  0  0  0  0  0  0  0  0  0  0
    8.2865    0.2549    1.3990 H   0  0  0  0  0  0  0  0  0  0  0  0
    7.0399    2.4090    2.2413 H   0  0  0  0  0  0  0  0  0  0  0  0
  1  2  1  0
  2  3  2  0
  3  4  1  0
  4  5  2  0
  5  6  1  0
  6  7  2  0
  7  8  1  0
  8  9  2  0
  9 10  1  0
 10 11  2  0
 11 12  1  0
 12 13  2  0
 13 14  1  0
 14 15  2  0
 15 16  1  0
 16 17  2  0
 17 18  1  0
 18 19  2  0
 19 20  1  0
 20 21  1  0
 21 22  2  0
 22 23  1  0
 23 24  2  0
  6 25  1  0
 25 26  1  0
 26 27  1  0
 27 28  2  0
 28 29  1  0
 29 30  2  0
 30 31  1  0
 31 32  1  0
 24  1  1  0
 32 25  2  0
 23  3  1  0
 32 28  1  0
  9  4  1  0
 22 10  1  0
 16 11  1  0
 21 17  1  0
  1 33  1  0
  1 34  1  0
  2 35  1  0
  5 36  1  0
  7 37  1  0
 12 38  1  0
 13 39  1  0
 14 40  1  0
 15 41  1  0
 18 42  1  0
 19 43  1  0
 24 44  1  0
 27 45  1  0
 29 46  1  0
 30 47  1  0
M  END
