
     RDKit          3D

 43 50  0  0  0  0  0  0  0  0999 V2000
    6.8170    0.6711    0.4127 C   0  0  0  0  0  0  0  0  0  0  0  0
    7.0635    0.2333   -0.8941 C   0  0  0  0  0  0  0  0  0  0  0  0
    5.9063   -0.2999   -1.5105 C   0  0  0  0  0  0  0  0  0  0  0  0
    5.6633   -0.8267   -2.7317 C   0  0  0  0  0  0  0  0  0  0  0  0
    3.9982   -1.2721   -2.7959 S   0  0  0  0  0  0  0  0  0  0  0  0
    3.7000   -0.7493   -1.1838 C   0  0  0  0  0  0  0  0  0  0  0  0
    2.3964   -0.8511   -0.5690 C   0  0  0  0  0  0  0  0  0  0  0  0
    1.3434    0.0428   -0.8769 C   0  0  0  0  0  0  0  0  0  0  0  0
    0.1039   -0.1125   -0.2309 C   0  0  0  0  0  0  0  0  0  0  0  0
   -1.0084    0.6664   -0.4139 O   0  0  0  0  0  0  0  0  0  0  0  0
   -1.9853    0.1656    0.4098 C   0  0  0  0  0  0  0  0  0  0  0  0
   -1.5183   -0.9367    1.1306 C   0  0  0  0  0  0  0  0  0  0  0  0
   -2.2759   -1.6285    2.0205 N   0  0  0  0  0  0  0  0  0  0  0  0
   -3.5457   -1.1619    2.1627 C   0  0  0  0  0  0  0  0  0  0  0  0
   -4.1277   -0.0735    1.5018 C   0  0  0  0  0  0  0  0  0  0  0  0
   -5.4988    0.3332    1.7358 C   0  0  0  0  0  0  0  0  0  0  0  0
   -6.1439    1.4244    1.0988 C   0  0  0  0  0  0  0  0  0  0  0  0
   -5.2821    2.0578    0.2135 C   0  0  0  0  0  0  0  0  0  0  0  0
   -5.5829    3.1453   -0.5641 C   0  0  0  0  0  0  0  0  0  0  0  0
   -4.4468    3.4457   -1.2871 N   0  0  0  0  0  0  0  0  0  0  0  0
   -3.4336    2.5620   -0.9759 C   0  0  0  0  0  0  0  0  0  0  0  0
   -3.9288    1.6861   -0.0422 C   0  0  0  0  0  0  0  0  0  0  0  0
   -3.2859    0.6152    0.5789 C   0  0  0  0  0  0  0  0  0  0  0  0
   -0.2020   -1.0809    0.7017 C   0  0  0  0  0  0  0  0  0  0  0  0
    0.8238   -2.0055    1.0400 C   0  0  0  0  0  0  0  0  0  0  0  0
    0.7116   -3.0296    1.9320 C   0  0  0  0  0  0  0  0  0  0  0  0
    2.2131   -3.8701    1.9923 S   0  0  0  0  0  0  0  0  0  0  0  0
    2.9388   -2.8240    0.8205 C   0  0  0  0  0  0  0  0  0  0  0  0
    2.0738   -1.8410    0.3838 C   0  0  0  0  0  0  0  0  0  0  0  0
    4.8351   -0.2356   -0.6192 C   0  0  0  0  0  0  0  0  0  0  0  0
    5.1709    0.4780    1.0045 S   0  0  0  0  0  0  0  0  0  0  0  0
    7.5321    1.1154    1.0918 H   0  0  0  0  0  0  0  0  0  0  0  0
    8.0399    0.3073   -1.3573 H   0  0  0  0  0  0  0  0  0  0  0  0
    6.3231   -0.9768   -3.5744 H   0  0  0  0  0  0  0  0  0  0  0  0
    1.4818    0.8440   -1.5963 H   0  0  0  0  0  0  0  0  0  0  0  0
   -4.1315   -1.7337    2.8818 H   0  0  0  0  0  0  0  0  0  0  0  0
   -6.0892   -0.2372    2.4557 H   0  0  0  0  0  0  0  0  0  0  0  0
   -7.1689    1.7068    1.2918 H   0  0  0  0  0  0  0  0  0  0  0  0
   -6.4820    3.7352   -0.6789 H   0  0  0  0  0  0  0  0  0  0  0  0
   -4.3662    4.2050   -1.9509 H   0  0  0  0  0  0  0  0  0  0  0  0
   -2.4657    2.6488   -1.4513 H   0  0  0  0  0  0  0  0  0  0  0  0
   -0.1309   -3.3360    2.5377 H   0  0  0  0  0  0  0  0  0  0  0  0
    3.9648   -3.0069    0.5320 H   0  0  0  0  0  0  0  0  0  0  0  0
  1  2  2  0
  2  3  1  0
  3  4  2  0
  4  5  1  0
  5  6  1  0
  6  7  1  0
  7  8  2  0
  8  9  1  0
  9 10  1  0
 10 11  1  0
 11 12  2  0
 12 13  1  0
 13 14  2  0
 14 15  1  0
 15 16  1  0
 16 17  2  0
 17 18  1  0
 18 19  2  0
 19 20  1  0
 20 21  1  0
 21 22  2  0
 22 23  1  0
 12 24  1  0
 24 25  1  0
 25 26  2  0
 26 27  1  0
 27 28  1  0
 28 29  2  0
  6 30  2  0
 30 31  1  0
 31  1  1  0
 30  3  1  0
 29  7  1  0
 24  9  2  0
 29 25  1  0
 23 11  1  0
 23 15  2  0
 22 18  1  0
  1 32  1  0
  2 33  1  0
  4 34  1  0
  8 35  1  0
 14 36  1  0
 16 37  1  0
 17 38  1  0
 19 39  1  0
 20 40  1  0
 21 41  1  0
 26 42  1  0
 28 43  1  0
M  END
