
     RDKit          3D

 41 47  0  0  0  0  0  0  0  0999 V2000
    6.8661    0.5527    1.9022 C   0  0  0  0  0  0  0  0  0  0  0  0
    7.4838   -0.4110    1.0964 C   0  0  0  0  0  0  0  0  0  0  0  0
    6.5627   -1.0816    0.2568 C   0  0  0  0  0  0  0  0  0  0  0  0
    6.6909   -2.0664   -0.6603 C   0  0  0  0  0  0  0  0  0  0  0  0
    5.1250   -2.4043   -1.2977 S   0  0  0  0  0  0  0  0  0  0  0  0
    4.3658   -1.2030   -0.3258 C   0  0  0  0  0  0  0  0  0  0  0  0
    2.9484   -0.9525   -0.3870 C   0  0  0  0  0  0  0  0  0  0  0  0
    1.9504   -1.8498    0.0640 C   0  0  0  0  0  0  0  0  0  0  0  0
    0.5374   -1.5808   -0.0036 C   0  0  0  0  0  0  0  0  0  0  0  0
   -0.0243   -0.3902   -0.5352 C   0  0  0  0  0  0  0  0  0  0  0  0
   -1.4425   -0.1087   -0.6318 C   0  0  0  0  0  0  0  0  0  0  0  0
   -2.1966    0.3198   -1.7050 C   0  0  0  0  0  0  0  0  0  0  0  0
   -3.5420    0.5091   -1.4622 N   0  0  0  0  0  0  0  0  0  0  0  0
   -3.8304    0.2228   -0.2062 C   0  0  0  0  0  0  0  0  0  0  0  0
   -2.4702   -0.2966    0.7275 S   0  0  0  0  0  0  0  0  0  0  0  0
   -5.1516    0.3039    0.4149 C   0  0  0  0  0  0  0  0  0  0  0  0
   -5.3817   -0.3435    1.6110 N   0  0  0  0  0  0  0  0  0  0  0  0
   -6.6061   -0.3066    2.2198 C   0  0  0  0  0  0  0  0  0  0  0  0
   -7.7471    0.3446    1.7689 C   0  0  0  0  0  0  0  0  0  0  0  0
   -7.5618    1.0257    0.5513 C   0  0  0  0  0  0  0  0  0  0  0  0
   -8.5092    1.7317   -0.0860 N   0  0  0  0  0  0  0  0  0  0  0  0
   -7.8012    2.3386   -1.4577 S   0  0  0  0  0  0  0  0  0  0  0  0
   -6.2662    1.7408   -1.2997 N   0  0  0  0  0  0  0  0  0  0  0  0
   -6.2313    1.0192   -0.1641 C   0  0  0  0  0  0  0  0  0  0  0  0
    0.9768    0.4806   -0.9798 C   0  0  0  0  0  0  0  0  0  0  0  0
    0.8513    1.7312   -1.5303 C   0  0  0  0  0  0  0  0  0  0  0  0
    2.0876    2.2346   -1.8267 O   0  0  0  0  0  0  0  0  0  0  0  0
    3.0149    1.3046   -1.4476 C   0  0  0  0  0  0  0  0  0  0  0  0
    2.3826    0.2142   -0.9073 C   0  0  0  0  0  0  0  0  0  0  0  0
    5.2807   -0.5764    0.4759 C   0  0  0  0  0  0  0  0  0  0  0  0
    5.1252    0.7272    1.7165 S   0  0  0  0  0  0  0  0  0  0  0  0
    7.3480    1.1960    2.6260 H   0  0  0  0  0  0  0  0  0  0  0  0
    8.5493   -0.6028    1.1332 H   0  0  0  0  0  0  0  0  0  0  0  0
    7.5670   -2.6050   -0.9928 H   0  0  0  0  0  0  0  0  0  0  0  0
    2.2604   -2.8036    0.4941 H   0  0  0  0  0  0  0  0  0  0  0  0
   -0.1333   -2.3555    0.3723 H   0  0  0  0  0  0  0  0  0  0  0  0
   -1.8153    0.5086   -2.7017 H   0  0  0  0  0  0  0  0  0  0  0  0
   -6.6437   -0.8627    3.1569 H   0  0  0  0  0  0  0  0  0  0  0  0
   -8.6875    0.3335    2.3009 H   0  0  0  0  0  0  0  0  0  0  0  0
    0.0223    2.3821   -1.7714 H   0  0  0  0  0  0  0  0  0  0  0  0
    4.0453    1.5795   -1.6249 H   0  0  0  0  0  0  0  0  0  0  0  0
  1  2  2  0
  2  3  1  0
  3  4  2  0
  4  5  1  0
  5  6  1  0
  6  7  1  0
  7  8  2  0
  8  9  1  0
  9 10  2  0
 10 11  1  0
 11 12  2  0
 12 13  1  0
 13 14  2  0
 14 15  1  0
 14 16  1  0
 16 17  2  0
 17 18  1  0
 18 19  2  0
 19 20  1  0
 20 21  2  0
 21 22  1  0
 22 23  1  0
 23 24  2  0
 10 25  1  0
 25 26  2  0
 26 27  1  0
 27 28  1  0
 28 29  2  0
  6 30  2  0
 30 31  1  0
 31  1  1  0
 30  3  1  0
 29  7  1  0
 15 11  1  0
 24 16  1  0
 29 25  1  0
 24 20  1  0
  1 32  1  0
  2 33  1  0
  4 34  1  0
  8 35  1  0
  9 36  1  0
 12 37  1  0
 18 38  1  0
 19 39  1  0
 26 40  1  0
 28 41  1  0
M  END
