
     RDKit          3D

 44 49  0  0  0  0  0  0  0  0999 V2000
    7.3684   -1.4873    0.7108 C   0  0  0  0  0  0  0  0  0  0  0  0
    8.2282   -0.3954    0.4626 C   0  0  0  0  0  0  0  0  0  0  0  0
    7.4068    0.7220    0.1775 C   0  0  0  0  0  0  0  0  0  0  0  0
    7.4846    2.0284   -0.1471 C   0  0  0  0  0  0  0  0  0  0  0  0
    5.8585    2.6217   -0.3264 S   0  0  0  0  0  0  0  0  0  0  0  0
    5.1423    1.0901    0.0562 C   0  0  0  0  0  0  0  0  0  0  0  0
    3.7087    0.8814    0.1144 C   0  0  0  0  0  0  0  0  0  0  0  0
    3.0830    0.4530    1.2844 C   0  0  0  0  0  0  0  0  0  0  0  0
    1.6996    0.2567    1.3050 C   0  0  0  0  0  0  0  0  0  0  0  0
    0.9539    0.4867    0.1481 C   0  0  0  0  0  0  0  0  0  0  0  0
    1.5491    0.9122   -0.9956 N   0  0  0  0  0  0  0  0  0  0  0  0
    2.8929    1.0999   -0.9879 C   0  0  0  0  0  0  0  0  0  0  0  0
   -0.5072    0.3049    0.0741 C   0  0  0  0  0  0  0  0  0  0  0  0
   -1.2931    1.0227   -0.8370 C   0  0  0  0  0  0  0  0  0  0  0  0
   -2.6764    0.8371   -0.8943 C   0  0  0  0  0  0  0  0  0  0  0  0
   -3.2734   -0.0837   -0.0398 C   0  0  0  0  0  0  0  0  0  0  0  0
   -2.5494   -0.7856    0.8640 N   0  0  0  0  0  0  0  0  0  0  0  0
   -1.2059   -0.5862    0.8869 C   0  0  0  0  0  0  0  0  0  0  0  0
   -4.7114   -0.3246   -0.0170 C   0  0  0  0  0  0  0  0  0  0  0  0
   -5.4896   -0.2547    1.1729 C   0  0  0  0  0  0  0  0  0  0  0  0
   -6.9061   -0.4574    1.2364 C   0  0  0  0  0  0  0  0  0  0  0  0
   -7.7042   -0.7625    0.1165 C   0  0  0  0  0  0  0  0  0  0  0  0
   -6.9458   -0.8577   -1.0495 C   0  0  0  0  0  0  0  0  0  0  0  0
   -7.5106   -1.1722   -2.2609 C   0  0  0  0  0  0  0  0  0  0  0  0
   -6.3235   -1.2525   -3.4987 S   0  0  0  0  0  0  0  0  0  0  0  0
   -5.0512   -0.8714   -2.4054 C   0  0  0  0  0  0  0  0  0  0  0  0
   -5.5156   -0.6537   -1.1274 C   0  0  0  0  0  0  0  0  0  0  0  0
    6.1356    0.2029    0.2867 C   0  0  0  0  0  0  0  0  0  0  0  0
    6.0276   -1.1234    0.5975 N   0  0  0  0  0  0  0  0  0  0  0  0
    7.6128   -2.5128    0.9576 H   0  0  0  0  0  0  0  0  0  0  0  0
    9.3093   -0.4334    0.4864 H   0  0  0  0  0  0  0  0  0  0  0  0
    8.3416    2.6692   -0.2958 H   0  0  0  0  0  0  0  0  0  0  0  0
    3.6593    0.2902    2.1925 H   0  0  0  0  0  0  0  0  0  0  0  0
    1.2268   -0.0501    2.2324 H   0  0  0  0  0  0  0  0  0  0  0  0
    3.3045    1.4364   -1.9366 H   0  0  0  0  0  0  0  0  0  0  0  0
   -0.8283    1.7419   -1.5097 H   0  0  0  0  0  0  0  0  0  0  0  0
   -3.2697    1.4192   -1.5925 H   0  0  0  0  0  0  0  0  0  0  0  0
   -0.6952   -1.2139    1.6123 H   0  0  0  0  0  0  0  0  0  0  0  0
   -4.9719   -0.0273    2.1074 H   0  0  0  0  0  0  0  0  0  0  0  0
   -7.3894   -0.3725    2.2102 H   0  0  0  0  0  0  0  0  0  0  0  0
   -8.7730   -0.9163    0.1834 H   0  0  0  0  0  0  0  0  0  0  0  0
   -8.5475   -1.3700   -2.4953 H   0  0  0  0  0  0  0  0  0  0  0  0
   -4.0379   -0.8393   -2.7803 H   0  0  0  0  0  0  0  0  0  0  0  0
    5.1829   -1.6731    0.6990 H   0  0  0  0  0  0  0  0  0  0  0  0
  1  2  2  0
  2  3  1  0
  3  4  2  0
  4  5  1  0
  5  6  1  0
  6  7  1  0
  7  8  2  0
  8  9  1  0
  9 10  2  0
 10 11  1  0
 11 12  2  0
 10 13  1  0
 13 14  2  0
 14 15  1  0
 15 16  2  0
 16 17  1  0
 17 18  2  0
 16 19  1  0
 19 20  2  0
 20 21  1  0
 21 22  2  0
 22 23  1  0
 23 24  2  0
 24 25  1  0
 25 26  1  0
 26 27  2  0
  6 28  2  0
 28 29  1  0
 29  1  1  0
 28  3  1  0
 12  7  1  0
 18 13  1  0
 27 19  1  0
 27 23  1  0
  1 30  1  0
  2 31  1  0
  4 32  1  0
  8 33  1  0
  9 34  1  0
 12 35  1  0
 14 36  1  0
 15 37  1  0
 18 38  1  0
 20 39  1  0
 21 40  1  0
 22 41  1  0
 24 42  1  0
 26 43  1  0
 29 44  1  0
M  END
