
     RDKit          3D

 42 48  0  0  0  0  0  0  0  0999 V2000
    7.2627   -1.6190    0.6136 C   0  0  0  0  0  0  0  0  0  0  0  0
    7.7542   -0.6164   -0.2482 C   0  0  0  0  0  0  0  0  0  0  0  0
    6.6589    0.2158   -0.5802 C   0  0  0  0  0  0  0  0  0  0  0  0
    6.3586    1.2983   -1.3246 C   0  0  0  0  0  0  0  0  0  0  0  0
    4.6583    1.6036   -1.1379 S   0  0  0  0  0  0  0  0  0  0  0  0
    4.4260    0.2812   -0.0324 C   0  0  0  0  0  0  0  0  0  0  0  0
    3.1589   -0.0122    0.5629 C   0  0  0  0  0  0  0  0  0  0  0  0
    2.8696   -0.5398    1.8086 C   0  0  0  0  0  0  0  0  0  0  0  0
    1.4590   -0.6236    1.9112 C   0  0  0  0  0  0  0  0  0  0  0  0
    0.9312   -0.1347    0.7291 C   0  0  0  0  0  0  0  0  0  0  0  0
    1.9745    0.2389   -0.0775 O   0  0  0  0  0  0  0  0  0  0  0  0
   -0.4358    0.0063    0.3208 C   0  0  0  0  0  0  0  0  0  0  0  0
   -1.7877   -0.5026    1.2869 S   0  0  0  0  0  0  0  0  0  0  0  0
   -2.9753   -0.0072    0.1168 C   0  0  0  0  0  0  0  0  0  0  0  0
   -4.4004   -0.2123    0.3266 C   0  0  0  0  0  0  0  0  0  0  0  0
   -4.9291   -1.4287    0.8253 C   0  0  0  0  0  0  0  0  0  0  0  0
   -6.3070   -1.6559    1.0551 C   0  0  0  0  0  0  0  0  0  0  0  0
   -7.2912   -0.6873    0.8107 C   0  0  0  0  0  0  0  0  0  0  0  0
   -6.8342    0.5538    0.3094 C   0  0  0  0  0  0  0  0  0  0  0  0
   -7.6156    1.6030    0.0122 N   0  0  0  0  0  0  0  0  0  0  0  0
   -6.6073    2.8072   -0.5171 S   0  0  0  0  0  0  0  0  0  0  0  0
   -5.1395    2.0428   -0.4295 N   0  0  0  0  0  0  0  0  0  0  0  0
   -5.3615    0.8069    0.0556 C   0  0  0  0  0  0  0  0  0  0  0  0
   -2.3152    0.5323   -0.9341 C   0  0  0  0  0  0  0  0  0  0  0  0
   -2.8391    1.0637   -2.0799 N   0  0  0  0  0  0  0  0  0  0  0  0
   -1.6876    1.4243   -2.7745 C   0  0  0  0  0  0  0  0  0  0  0  0
   -0.5232    1.1137   -2.0433 C   0  0  0  0  0  0  0  0  0  0  0  0
   -0.9406    0.5245   -0.8212 C   0  0  0  0  0  0  0  0  0  0  0  0
    5.6138   -0.3500    0.1187 C   0  0  0  0  0  0  0  0  0  0  0  0
    5.8973   -1.4697    0.8510 N   0  0  0  0  0  0  0  0  0  0  0  0
    7.7864   -2.4461    1.0759 H   0  0  0  0  0  0  0  0  0  0  0  0
    8.7784   -0.5286   -0.5860 H   0  0  0  0  0  0  0  0  0  0  0  0
    6.9791    1.9135   -1.9595 H   0  0  0  0  0  0  0  0  0  0  0  0
    3.5859   -0.8108    2.5706 H   0  0  0  0  0  0  0  0  0  0  0  0
    0.8934   -0.9864    2.7582 H   0  0  0  0  0  0  0  0  0  0  0  0
   -4.2450   -2.2512    1.0426 H   0  0  0  0  0  0  0  0  0  0  0  0
   -6.6162   -2.6283    1.4405 H   0  0  0  0  0  0  0  0  0  0  0  0
   -8.3432   -0.8723    0.9926 H   0  0  0  0  0  0  0  0  0  0  0  0
   -3.8184    1.1963   -2.3054 H   0  0  0  0  0  0  0  0  0  0  0  0
   -1.7866    1.8929   -3.7451 H   0  0  0  0  0  0  0  0  0  0  0  0
    0.4926    1.3033   -2.3663 H   0  0  0  0  0  0  0  0  0  0  0  0
    5.2611   -2.0391    1.3941 H   0  0  0  0  0  0  0  0  0  0  0  0
  1  2  2  0
  2  3  1  0
  3  4  2  0
  4  5  1  0
  5  6  1  0
  6  7  1  0
  7  8  2  0
  8  9  1  0
  9 10  2  0
 10 11  1  0
 10 12  1  0
 12 13  1  0
 13 14  1  0
 14 15  1  0
 15 16  2  0
 16 17  1  0
 17 18  2  0
 18 19  1  0
 19 20  2  0
 20 21  1  0
 21 22  1  0
 22 23  2  0
 14 24  2  0
 24 25  1  0
 25 26  1  0
 26 27  2  0
 27 28  1  0
  6 29  2  0
 29 30  1  0
 30  1  1  0
 29  3  1  0
 11  7  1  0
 28 12  2  0
 23 15  1  0
 28 24  1  0
 23 19  1  0
  1 31  1  0
  2 32  1  0
  4 33  1  0
  8 34  1  0
  9 35  1  0
 16 36  1  0
 17 37  1  0
 18 38  1  0
 25 39  1  0
 26 40  1  0
 27 41  1  0
 30 42  1  0
M  END
