
     RDKit          3D

 38 43  0  0  0  0  0  0  0  0999 V2000
   -7.2611   -0.8948    0.2933 C   0  0  0  0  0  0  0  0  0  0  0  0
   -7.5463    0.4082   -0.1535 C   0  0  0  0  0  0  0  0  0  0  0  0
   -6.3046    1.0447   -0.3712 C   0  0  0  0  0  0  0  0  0  0  0  0
   -5.8261    2.2336   -0.7785 C   0  0  0  0  0  0  0  0  0  0  0  0
   -4.1034    2.1312   -0.7428 S   0  0  0  0  0  0  0  0  0  0  0  0
   -4.0760    0.4674   -0.1725 C   0  0  0  0  0  0  0  0  0  0  0  0
   -2.8436   -0.2595    0.0769 C   0  0  0  0  0  0  0  0  0  0  0  0
   -2.6607   -1.5581    0.5209 C   0  0  0  0  0  0  0  0  0  0  0  0
   -1.2866   -1.9308    0.6493 C   0  0  0  0  0  0  0  0  0  0  0  0
   -0.4263   -0.9137    0.3021 C   0  0  0  0  0  0  0  0  0  0  0  0
   -1.2983    0.4757   -0.1734 S   0  0  0  0  0  0  0  0  0  0  0  0
    1.0109   -0.9502    0.3152 C   0  0  0  0  0  0  0  0  0  0  0  0
    1.8736   -1.9711    0.6651 C   0  0  0  0  0  0  0  0  0  0  0  0
    3.1998   -1.4953    0.5028 C   0  0  0  0  0  0  0  0  0  0  0  0
    3.1332   -0.1898    0.0558 C   0  0  0  0  0  0  0  0  0  0  0  0
    1.7965    0.1189   -0.0504 N   0  0  0  0  0  0  0  0  0  0  0  0
    4.1716    0.7417   -0.2628 C   0  0  0  0  0  0  0  0  0  0  0  0
    3.8899    2.3671   -0.8195 S   0  0  0  0  0  0  0  0  0  0  0  0
    5.5837    2.7418   -0.9471 C   0  0  0  0  0  0  0  0  0  0  0  0
    6.2724    1.6446   -0.5711 C   0  0  0  0  0  0  0  0  0  0  0  0
    7.5964    1.2058   -0.4203 C   0  0  0  0  0  0  0  0  0  0  0  0
    7.4878   -0.1150    0.0319 C   0  0  0  0  0  0  0  0  0  0  0  0
    6.1871   -0.5587    0.1833 O   0  0  0  0  0  0  0  0  0  0  0  0
    5.5101    0.5618   -0.2007 C   0  0  0  0  0  0  0  0  0  0  0  0
   -5.3741    0.0787   -0.0397 C   0  0  0  0  0  0  0  0  0  0  0  0
   -5.8877   -1.1226    0.3719 N   0  0  0  0  0  0  0  0  0  0  0  0
   -7.9392   -1.6933    0.5667 H   0  0  0  0  0  0  0  0  0  0  0  0
   -8.5368    0.8198   -0.2950 H   0  0  0  0  0  0  0  0  0  0  0  0
   -6.3406    3.1321   -1.0866 H   0  0  0  0  0  0  0  0  0  0  0  0
   -3.4514   -2.2509    0.7571 H   0  0  0  0  0  0  0  0  0  0  0  0
   -0.9570   -2.9071    0.9832 H   0  0  0  0  0  0  0  0  0  0  0  0
    1.5900   -2.9589    1.0032 H   0  0  0  0  0  0  0  0  0  0  0  0
    4.1069   -2.0548    0.6946 H   0  0  0  0  0  0  0  0  0  0  0  0
    1.4363    1.0124   -0.3566 H   0  0  0  0  0  0  0  0  0  0  0  0
    5.9251    3.7117   -1.2791 H   0  0  0  0  0  0  0  0  0  0  0  0
    8.5164    1.7417   -0.6035 H   0  0  0  0  0  0  0  0  0  0  0  0
    8.2339   -0.8565    0.2862 H   0  0  0  0  0  0  0  0  0  0  0  0
   -5.4018   -1.9579    0.6587 H   0  0  0  0  0  0  0  0  0  0  0  0
  1  2  2  0
  2  3  1  0
  3  4  2  0
  4  5  1  0
  5  6  1  0
  6  7  1  0
  7  8  2  0
  8  9  1  0
  9 10  2  0
 10 11  1  0
 10 12  1  0
 12 13  2  0
 13 14  1  0
 14 15  2  0
 15 16  1  0
 15 17  1  0
 17 18  1  0
 18 19  1  0
 19 20  2  0
 20 21  1  0
 21 22  2  0
 22 23  1  0
 23 24  1  0
  6 25  2  0
 25 26  1  0
 26  1  1  0
 25  3  1  0
 11  7  1  0
 16 12  1  0
 24 17  2  0
 24 20  1  0
  1 27  1  0
  2 28  1  0
  4 29  1  0
  8 30  1  0
  9 31  1  0
 13 32  1  0
 14 33  1  0
 16 34  1  0
 19 35  1  0
 21 36  1  0
 22 37  1  0
 26 38  1  0
M  END
