
     RDKit          3D

 38 43  0  0  0  0  0  0  0  0999 V2000
    7.1000   -1.2041    0.4313 C   0  0  0  0  0  0  0  0  0  0  0  0
    7.6850    0.0157    0.0460 C   0  0  0  0  0  0  0  0  0  0  0  0
    6.6244    0.9051   -0.2344 C   0  0  0  0  0  0  0  0  0  0  0  0
    6.4384    2.1751   -0.6354 C   0  0  0  0  0  0  0  0  0  0  0  0
    4.7349    2.4408   -0.7186 S   0  0  0  0  0  0  0  0  0  0  0  0
    4.3157    0.8117   -0.2041 C   0  0  0  0  0  0  0  0  0  0  0  0
    2.9428    0.3599   -0.0609 C   0  0  0  0  0  0  0  0  0  0  0  0
    2.4580   -0.8761    0.3302 C   0  0  0  0  0  0  0  0  0  0  0  0
    1.0296   -0.9504    0.3542 C   0  0  0  0  0  0  0  0  0  0  0  0
    0.4286    0.2321   -0.0196 C   0  0  0  0  0  0  0  0  0  0  0  0
    1.6103    1.4091   -0.3923 S   0  0  0  0  0  0  0  0  0  0  0  0
   -0.9799    0.5178   -0.1093 C   0  0  0  0  0  0  0  0  0  0  0  0
   -1.6435    1.6740   -0.4743 C   0  0  0  0  0  0  0  0  0  0  0  0
   -3.0380    1.4254   -0.3952 C   0  0  0  0  0  0  0  0  0  0  0  0
   -3.2173    0.1200    0.0172 C   0  0  0  0  0  0  0  0  0  0  0  0
   -1.9541   -0.4080    0.1835 N   0  0  0  0  0  0  0  0  0  0  0  0
   -4.4117   -0.6446    0.2593 C   0  0  0  0  0  0  0  0  0  0  0  0
   -4.3349   -2.2993    0.7823 S   0  0  0  0  0  0  0  0  0  0  0  0
   -6.0413   -2.4803    0.8400 C   0  0  0  0  0  0  0  0  0  0  0  0
   -6.6533   -1.3183    0.4728 C   0  0  0  0  0  0  0  0  0  0  0  0
   -8.4050   -0.9155    0.3460 S   0  0  0  0  0  0  0  0  0  0  0  0
   -7.8455    0.6696   -0.1552 C   0  0  0  0  0  0  0  0  0  0  0  0
   -6.4581    0.8481   -0.2120 C   0  0  0  0  0  0  0  0  0  0  0  0
   -5.7284   -0.3191    0.1567 C   0  0  0  0  0  0  0  0  0  0  0  0
    5.4897    0.1537    0.0032 C   0  0  0  0  0  0  0  0  0  0  0  0
    5.7074   -1.1360    0.4102 N   0  0  0  0  0  0  0  0  0  0  0  0
    7.5731   -2.1328    0.7244 H   0  0  0  0  0  0  0  0  0  0  0  0
    8.7476    0.2099   -0.0157 H   0  0  0  0  0  0  0  0  0  0  0  0
    7.1514    2.9488   -0.8800 H   0  0  0  0  0  0  0  0  0  0  0  0
    3.0667   -1.7238    0.5983 H   0  0  0  0  0  0  0  0  0  0  0  0
    0.4897   -1.8447    0.6372 H   0  0  0  0  0  0  0  0  0  0  0  0
   -1.1809    2.6076   -0.7694 H   0  0  0  0  0  0  0  0  0  0  0  0
   -3.8121    2.1437   -0.6218 H   0  0  0  0  0  0  0  0  0  0  0  0
   -1.7829   -1.3565    0.4830 H   0  0  0  0  0  0  0  0  0  0  0  0
   -6.5205   -3.4045    1.1323 H   0  0  0  0  0  0  0  0  0  0  0  0
   -8.6007    1.4079   -0.3884 H   0  0  0  0  0  0  0  0  0  0  0  0
   -6.0224    1.7917   -0.5105 H   0  0  0  0  0  0  0  0  0  0  0  0
    5.0372   -1.8537    0.6370 H   0  0  0  0  0  0  0  0  0  0  0  0
  1  2  2  0
  2  3  1  0
  3  4  2  0
  4  5  1  0
  5  6  1  0
  6  7  1  0
  7  8  2  0
  8  9  1  0
  9 10  2  0
 10 11  1  0
 10 12  1  0
 12 13  2  0
 13 14  1  0
 14 15  2  0
 15 16  1  0
 15 17  1  0
 17 18  1  0
 18 19  1  0
 19 20  2  0
 20 21  1  0
 21 22  1  0
 22 23  2  0
 23 24  1  0
  6 25  2  0
 25 26  1  0
 26  1  1  0
 25  3  1  0
 11  7  1  0
 16 12  1  0
 24 17  2  0
 24 20  1  0
  1 27  1  0
  2 28  1  0
  4 29  1  0
  8 30  1  0
  9 31  1  0
 13 32  1  0
 14 33  1  0
 16 34  1  0
 19 35  1  0
 22 36  1  0
 23 37  1  0
 26 38  1  0
M  END
