
     RDKit          3D

 48 54  0  0  0  0  0  0  0  0999 V2000
    2.6410    3.8434    0.4530 Si  0  0  0  0  0  4  0  0  0  0  0  0
    1.1211    2.7761    0.6195 C   0  0  0  0  0  0  0  0  0  0  0  0
    1.3925    1.4765    0.3722 C   0  0  0  0  0  0  0  0  0  0  0  0
    0.4013    0.3897    0.4226 C   0  0  0  0  0  0  0  0  0  0  0  0
   -0.9516    0.5790    0.7376 C   0  0  0  0  0  0  0  0  0  0  0  0
   -1.8368   -0.5033    0.7618 C   0  0  0  0  0  0  0  0  0  0  0  0
   -1.3081   -1.7531    0.4659 C   0  0  0  0  0  0  0  0  0  0  0  0
   -0.0100   -1.9791    0.1576 N   0  0  0  0  0  0  0  0  0  0  0  0
    0.8364   -0.9121    0.1373 C   0  0  0  0  0  0  0  0  0  0  0  0
    2.2456   -1.2128   -0.2052 C   0  0  0  0  0  0  0  0  0  0  0  0
    2.6386   -2.5185   -0.4809 C   0  0  0  0  0  0  0  0  0  0  0  0
    3.8922   -2.8962   -0.8015 N   0  0  0  0  0  0  0  0  0  0  0  0
    4.8259   -1.9395   -0.8573 C   0  0  0  0  0  0  0  0  0  0  0  0
    6.1127   -2.3343   -1.1871 C   0  0  0  0  0  0  0  0  0  0  0  0
    7.1508   -1.4167   -1.2705 C   0  0  0  0  0  0  0  0  0  0  0  0
    6.8520   -0.1009   -1.0132 C   0  0  0  0  0  0  0  0  0  0  0  0
    5.6143    0.3266   -0.6889 N   0  0  0  0  0  0  0  0  0  0  0  0
    4.5891   -0.5683   -0.6049 C   0  0  0  0  0  0  0  0  0  0  0  0
    3.2554   -0.2138   -0.2712 C   0  0  0  0  0  0  0  0  0  0  0  0
    2.8104    1.1884    0.0291 C   0  0  0  0  0  0  0  0  0  0  0  0
    3.5824    2.2972    0.0272 C   0  0  0  0  0  0  0  0  0  0  0  0
   -3.2567   -0.3264    1.0891 C   0  0  0  0  0  0  0  0  0  0  0  0
   -3.6334   -0.3477    2.4447 C   0  0  0  0  0  0  0  0  0  0  0  0
   -4.9632   -0.1910    2.8208 C   0  0  0  0  0  0  0  0  0  0  0  0
   -5.9403   -0.0093    1.8467 C   0  0  0  0  0  0  0  0  0  0  0  0
   -5.6044    0.0204    0.4854 C   0  0  0  0  0  0  0  0  0  0  0  0
   -6.6054    0.2067   -0.4826 C   0  0  0  0  0  0  0  0  0  0  0  0
   -6.2940    0.2418   -1.8408 C   0  0  0  0  0  0  0  0  0  0  0  0
   -4.9759    0.0919   -2.2496 C   0  0  0  0  0  0  0  0  0  0  0  0
   -3.9691   -0.0944   -1.2997 C   0  0  0  0  0  0  0  0  0  0  0  0
   -4.2522   -0.1372    0.0867 C   0  0  0  0  0  0  0  0  0  0  0  0
    2.5360    4.7910   -0.6826 H   0  0  0  0  0  0  0  0  0  0  0  0
    3.0515    4.4353    1.7490 H   0  0  0  0  0  0  0  0  0  0  0  0
    0.1795    3.2276    0.8842 H   0  0  0  0  0  0  0  0  0  0  0  0
   -1.3359    1.5699    0.9634 H   0  0  0  0  0  0  0  0  0  0  0  0
   -1.9369   -2.6407    0.4662 H   0  0  0  0  0  0  0  0  0  0  0  0
    1.9255   -3.3406   -0.4514 H   0  0  0  0  0  0  0  0  0  0  0  0
    6.3078   -3.3859   -1.3835 H   0  0  0  0  0  0  0  0  0  0  0  0
    8.1565   -1.7263   -1.5284 H   0  0  0  0  0  0  0  0  0  0  0  0
    7.6141    0.6715   -1.0598 H   0  0  0  0  0  0  0  0  0  0  0  0
    4.6350    2.3775   -0.1850 H   0  0  0  0  0  0  0  0  0  0  0  0
   -2.8804   -0.4904    3.2184 H   0  0  0  0  0  0  0  0  0  0  0  0
   -5.2387   -0.2112    3.8720 H   0  0  0  0  0  0  0  0  0  0  0  0
   -6.9753    0.1108    2.1608 H   0  0  0  0  0  0  0  0  0  0  0  0
   -7.6445    0.3272   -0.1832 H   0  0  0  0  0  0  0  0  0  0  0  0
   -7.0807    0.3867   -2.5764 H   0  0  0  0  0  0  0  0  0  0  0  0
   -4.7255    0.1194   -3.3070 H   0  0  0  0  0  0  0  0  0  0  0  0
   -2.9484   -0.2053   -1.6608 H   0  0  0  0  0  0  0  0  0  0  0  0
  1  2  1  0
  2  3  2  0
  3  4  1  0
  4  5  2  0
  5  6  1  0
  6  7  2  0
  7  8  1  0
  8  9  2  0
  9 10  1  0
 10 11  2  0
 11 12  1  0
 12 13  2  0
 13 14  1  0
 14 15  2  0
 15 16  1  0
 16 17  2  0
 17 18  1  0
 18 19  2  0
 19 20  1  0
 20 21  2  0
  6 22  1  0
 22 23  2  0
 23 24  1  0
 24 25  2  0
 25 26  1  0
 26 27  2  0
 27 28  1  0
 28 29  2  0
 29 30  1  0
 30 31  2  0
 21  1  1  0
 31 22  1  0
 20  3  1  0
 31 26  1  0
  9  4  1  0
 19 10  1  0
 18 13  1  0
  1 32  1  0
  1 33  1  0
  2 34  1  0
  5 35  1  0
  7 36  1  0
 11 37  1  0
 14 38  1  0
 15 39  1  0
 16 40  1  0
 21 41  1  0
 23 42  1  0
 24 43  1  0
 25 44  1  0
 27 45  1  0
 28 46  1  0
 29 47  1  0
 30 48  1  0
M  END
