
     RDKit          3D

 41 47  0  0  0  0  0  0  0  0999 V2000
    5.8003    1.8807   -1.0441 C   0  0  0  0  0  0  0  0  0  0  0  0
    6.7567    1.3054   -0.1798 C   0  0  0  0  0  0  0  0  0  0  0  0
    6.0643    0.3998    0.6601 C   0  0  0  0  0  0  0  0  0  0  0  0
    6.2763   -0.4721    1.6663 C   0  0  0  0  0  0  0  0  0  0  0  0
    4.7413   -1.1802    2.0788 S   0  0  0  0  0  0  0  0  0  0  0  0
    3.8756   -0.2653    0.8857 C   0  0  0  0  0  0  0  0  0  0  0  0
    2.4380   -0.3697    0.6951 C   0  0  0  0  0  0  0  0  0  0  0  0
    1.8382   -1.5934    0.4203 C   0  0  0  0  0  0  0  0  0  0  0  0
    0.4553   -1.6714    0.2288 C   0  0  0  0  0  0  0  0  0  0  0  0
   -0.3807   -0.5307    0.3033 C   0  0  0  0  0  0  0  0  0  0  0  0
    0.2481    0.7065    0.5869 C   0  0  0  0  0  0  0  0  0  0  0  0
    1.6215    0.7620    0.7783 C   0  0  0  0  0  0  0  0  0  0  0  0
   -0.4085    1.8688    0.6838 N   0  0  0  0  0  0  0  0  0  0  0  0
   -1.7458    1.8711    0.5104 C   0  0  0  0  0  0  0  0  0  0  0  0
   -2.5070    0.7415    0.2289 C   0  0  0  0  0  0  0  0  0  0  0  0
   -3.9266    0.8909    0.0668 C   0  0  0  0  0  0  0  0  0  0  0  0
   -4.7828    1.9767    0.1318 N   0  0  0  0  0  0  0  0  0  0  0  0
   -6.0848    1.5812   -0.1044 C   0  0  0  0  0  0  0  0  0  0  0  0
   -6.1023    0.2200   -0.3286 C   0  0  0  0  0  0  0  0  0  0  0  0
   -4.7708   -0.1648   -0.2160 C   0  0  0  0  0  0  0  0  0  0  0  0
   -4.1696   -1.4311   -0.3425 C   0  0  0  0  0  0  0  0  0  0  0  0
   -4.7440   -2.6302   -0.6128 C   0  0  0  0  0  0  0  0  0  0  0  0
   -3.7403   -3.5581   -0.6309 O   0  0  0  0  0  0  0  0  0  0  0  0
   -2.5629   -2.8977   -0.3678 C   0  0  0  0  0  0  0  0  0  0  0  0
   -2.7736   -1.5472   -0.1771 C   0  0  0  0  0  0  0  0  0  0  0  0
   -1.8208   -0.5124    0.1163 C   0  0  0  0  0  0  0  0  0  0  0  0
    4.7613    0.5174    0.2291 C   0  0  0  0  0  0  0  0  0  0  0  0
    4.5206    1.3855   -0.7988 N   0  0  0  0  0  0  0  0  0  0  0  0
    5.9347    2.6143   -1.8288 H   0  0  0  0  0  0  0  0  0  0  0  0
    7.8152    1.5293   -0.1814 H   0  0  0  0  0  0  0  0  0  0  0  0
    7.1849   -0.7495    2.1804 H   0  0  0  0  0  0  0  0  0  0  0  0
    2.4367   -2.4994    0.3448 H   0  0  0  0  0  0  0  0  0  0  0  0
    0.0550   -2.6530    0.0185 H   0  0  0  0  0  0  0  0  0  0  0  0
    2.0651    1.7284    1.0147 H   0  0  0  0  0  0  0  0  0  0  0  0
   -2.1903    2.8564    0.6116 H   0  0  0  0  0  0  0  0  0  0  0  0
   -4.5026    2.9281    0.3256 H   0  0  0  0  0  0  0  0  0  0  0  0
   -6.8849    2.3096   -0.0904 H   0  0  0  0  0  0  0  0  0  0  0  0
   -6.9735   -0.3844   -0.5414 H   0  0  0  0  0  0  0  0  0  0  0  0
   -5.7417   -2.9969   -0.8037 H   0  0  0  0  0  0  0  0  0  0  0  0
   -1.7101   -3.5562   -0.3611 H   0  0  0  0  0  0  0  0  0  0  0  0
    3.6345    1.5899   -1.2455 H   0  0  0  0  0  0  0  0  0  0  0  0
  1  2  2  0
  2  3  1  0
  3  4  2  0
  4  5  1  0
  5  6  1  0
  6  7  1  0
  7  8  2  0
  8  9  1  0
  9 10  2  0
 10 11  1  0
 11 12  2  0
 11 13  1  0
 13 14  2  0
 14 15  1  0
 15 16  1  0
 16 17  1  0
 17 18  1  0
 18 19  2  0
 19 20  1  0
 20 21  1  0
 21 22  2  0
 22 23  1  0
 23 24  1  0
 24 25  2  0
 25 26  1  0
  6 27  2  0
 27 28  1  0
 28  1  1  0
 27  3  1  0
 12  7  1  0
 26 15  2  0
 26 10  1  0
 20 16  2  0
 25 21  1  0
  1 29  1  0
  2 30  1  0
  4 31  1  0
  8 32  1  0
  9 33  1  0
 12 34  1  0
 14 35  1  0
 17 36  1  0
 18 37  1  0
 19 38  1  0
 22 39  1  0
 24 40  1  0
 28 41  1  0
M  END
