
     RDKit          3D

 35 40  0  0  0  0  0  0  0  0999 V2000
    5.9138   -1.4305   -1.8328 C   0  0  0  0  0  0  0  0  0  0  0  0
    6.6115   -0.7578   -0.8229 C   0  0  0  0  0  0  0  0  0  0  0  0
    5.7569    0.0138    0.0001 C   0  0  0  0  0  0  0  0  0  0  0  0
    5.9751    0.8133    1.0677 C   0  0  0  0  0  0  0  0  0  0  0  0
    4.4554    1.4490    1.5736 S   0  0  0  0  0  0  0  0  0  0  0  0
    3.5858    0.6148    0.3395 C   0  0  0  0  0  0  0  0  0  0  0  0
    2.1390    0.7147    0.2027 C   0  0  0  0  0  0  0  0  0  0  0  0
    1.5341    1.9485   -0.0357 C   0  0  0  0  0  0  0  0  0  0  0  0
    0.1448    2.0511   -0.1694 C   0  0  0  0  0  0  0  0  0  0  0  0
   -0.6781    0.9023   -0.0639 C   0  0  0  0  0  0  0  0  0  0  0  0
   -0.0601   -0.3233    0.1767 C   0  0  0  0  0  0  0  0  0  0  0  0
    1.3397   -0.4334    0.3126 C   0  0  0  0  0  0  0  0  0  0  0  0
   -1.2070   -1.5973    0.2757 S   0  0  0  0  0  0  0  0  0  0  0  0
   -2.5400   -0.5504    0.0004 C   0  0  0  0  0  0  0  0  0  0  0  0
   -2.1097    0.7651   -0.1652 C   0  0  0  0  0  0  0  0  0  0  0  0
   -2.9683    1.8019   -0.3979 N   0  0  0  0  0  0  0  0  0  0  0  0
   -4.2756    1.4865   -0.4614 C   0  0  0  0  0  0  0  0  0  0  0  0
   -4.8057    0.2108   -0.3105 C   0  0  0  0  0  0  0  0  0  0  0  0
   -6.1730   -0.1005   -0.3796 C   0  0  0  0  0  0  0  0  0  0  0  0
   -6.5838   -1.4208   -0.2115 C   0  0  0  0  0  0  0  0  0  0  0  0
   -5.6182   -2.3885    0.0202 C   0  0  0  0  0  0  0  0  0  0  0  0
   -4.2946   -2.1300    0.0938 N   0  0  0  0  0  0  0  0  0  0  0  0
   -3.9145   -0.8384   -0.0727 C   0  0  0  0  0  0  0  0  0  0  0  0
    4.4390   -0.1227   -0.4379 C   0  0  0  0  0  0  0  0  0  0  0  0
    4.1721   -1.1867   -1.8747 S   0  0  0  0  0  0  0  0  0  0  0  0
    6.3354   -2.0803   -2.5877 H   0  0  0  0  0  0  0  0  0  0  0  0
    7.6857   -0.8354   -0.7080 H   0  0  0  0  0  0  0  0  0  0  0  0
    6.8940    1.0679    1.5763 H   0  0  0  0  0  0  0  0  0  0  0  0
    2.1364    2.8502   -0.1287 H   0  0  0  0  0  0  0  0  0  0  0  0
   -0.3125    3.0203   -0.3577 H   0  0  0  0  0  0  0  0  0  0  0  0
    1.7885   -1.4048    0.5064 H   0  0  0  0  0  0  0  0  0  0  0  0
   -4.9273    2.3376   -0.6481 H   0  0  0  0  0  0  0  0  0  0  0  0
   -6.9128    0.6745   -0.5623 H   0  0  0  0  0  0  0  0  0  0  0  0
   -7.6333   -1.6906   -0.2598 H   0  0  0  0  0  0  0  0  0  0  0  0
   -5.8926   -3.4311    0.1573 H   0  0  0  0  0  0  0  0  0  0  0  0
  1  2  2  0
  2  3  1  0
  3  4  2  0
  4  5  1  0
  5  6  1  0
  6  7  1  0
  7  8  2  0
  8  9  1  0
  9 10  2  0
 10 11  1  0
 11 12  2  0
 11 13  1  0
 13 14  1  0
 14 15  2  0
 15 16  1  0
 16 17  2  0
 17 18  1  0
 18 19  2  0
 19 20  1  0
 20 21  2  0
 21 22  1  0
 22 23  2  0
  6 24  2  0
 24 25  1  0
 25  1  1  0
 24  3  1  0
 12  7  1  0
 23 14  1  0
 15 10  1  0
 23 18  1  0
  1 26  1  0
  2 27  1  0
  4 28  1  0
  8 29  1  0
  9 30  1  0
 12 31  1  0
 17 32  1  0
 19 33  1  0
 20 34  1  0
 21 35  1  0
M  END
