
     RDKit          3D

 49 56  0  0  0  0  0  0  0  0999 V2000
    6.6530    1.8204   -1.6917 C   0  0  0  0  0  0  0  0  0  0  0  0
    7.7007    1.1238   -1.0762 C   0  0  0  0  0  0  0  0  0  0  0  0
    7.0713    0.1434   -0.2945 C   0  0  0  0  0  0  0  0  0  0  0  0
    7.3782   -0.8671    0.5449 C   0  0  0  0  0  0  0  0  0  0  0  0
    5.8826   -1.5833    1.0731 S   0  0  0  0  0  0  0  0  0  0  0  0
    4.8980   -0.4956    0.1402 C   0  0  0  0  0  0  0  0  0  0  0  0
    3.4395   -0.5300    0.1284 C   0  0  0  0  0  0  0  0  0  0  0  0
    2.7397   -1.7341    0.1442 C   0  0  0  0  0  0  0  0  0  0  0  0
    1.3353   -1.7512    0.1473 C   0  0  0  0  0  0  0  0  0  0  0  0
    0.5387   -0.5759    0.1690 C   0  0  0  0  0  0  0  0  0  0  0  0
    1.2745    0.6164    0.0487 C   0  0  0  0  0  0  0  0  0  0  0  0
    0.5620    1.7795   -0.1266 C   0  0  0  0  0  0  0  0  0  0  0  0
   -0.7729    1.8256   -0.2566 N   0  0  0  0  0  0  0  0  0  0  0  0
   -1.5160    0.7073   -0.1225 C   0  0  0  0  0  0  0  0  0  0  0  0
   -2.9154    0.7665   -0.3592 C   0  0  0  0  0  0  0  0  0  0  0  0
   -3.6469    1.9134   -0.8133 C   0  0  0  0  0  0  0  0  0  0  0  0
   -3.1856    3.1830   -1.0834 C   0  0  0  0  0  0  0  0  0  0  0  0
   -4.2490    3.9512   -1.5030 N   0  0  0  0  0  0  0  0  0  0  0  0
   -5.3969    3.1960   -1.5176 C   0  0  0  0  0  0  0  0  0  0  0  0
   -5.0433    1.9400   -1.0966 C   0  0  0  0  0  0  0  0  0  0  0  0
   -5.9173    0.8842   -0.9832 C   0  0  0  0  0  0  0  0  0  0  0  0
   -5.2226   -0.2553   -0.5189 C   0  0  0  0  0  0  0  0  0  0  0  0
   -3.7908   -0.3628   -0.1938 C   0  0  0  0  0  0  0  0  0  0  0  0
   -3.2115   -1.5535    0.3393 C   0  0  0  0  0  0  0  0  0  0  0  0
   -3.9936   -2.7020    0.6540 C   0  0  0  0  0  0  0  0  0  0  0  0
   -3.4757   -3.8314    1.2839 C   0  0  0  0  0  0  0  0  0  0  0  0
   -2.1527   -3.8382    1.6572 C   0  0  0  0  0  0  0  0  0  0  0  0
   -1.3538   -2.7411    1.3387 C   0  0  0  0  0  0  0  0  0  0  0  0
   -1.8125   -1.6092    0.6111 C   0  0  0  0  0  0  0  0  0  0  0  0
   -0.9262   -0.5251    0.2291 C   0  0  0  0  0  0  0  0  0  0  0  0
    2.6858    0.6438    0.0638 C   0  0  0  0  0  0  0  0  0  0  0  0
    5.7294    0.3461   -0.5120 C   0  0  0  0  0  0  0  0  0  0  0  0
    5.3921    1.3592   -1.3604 O   0  0  0  0  0  0  0  0  0  0  0  0
    6.6456    2.6543   -2.3817 H   0  0  0  0  0  0  0  0  0  0  0  0
    8.7556    1.3219   -1.2002 H   0  0  0  0  0  0  0  0  0  0  0  0
    8.3339   -1.2386    0.8859 H   0  0  0  0  0  0  0  0  0  0  0  0
    3.2675   -2.6855    0.1275 H   0  0  0  0  0  0  0  0  0  0  0  0
    0.8712   -2.7313    0.0684 H   0  0  0  0  0  0  0  0  0  0  0  0
    1.0540    2.7432   -0.2265 H   0  0  0  0  0  0  0  0  0  0  0  0
   -2.2020    3.6264   -1.0192 H   0  0  0  0  0  0  0  0  0  0  0  0
   -4.1877    4.9261   -1.7652 H   0  0  0  0  0  0  0  0  0  0  0  0
   -6.3405    3.6249   -1.8254 H   0  0  0  0  0  0  0  0  0  0  0  0
   -6.9744    0.8977   -1.2019 H   0  0  0  0  0  0  0  0  0  0  0  0
   -5.8582   -1.1313   -0.4007 H   0  0  0  0  0  0  0  0  0  0  0  0
   -5.0571   -2.7388    0.4401 H   0  0  0  0  0  0  0  0  0  0  0  0
   -4.1205   -4.6742    1.5162 H   0  0  0  0  0  0  0  0  0  0  0  0
   -1.7373   -4.6780    2.2070 H   0  0  0  0  0  0  0  0  0  0  0  0
   -0.3449   -2.7650    1.7425 H   0  0  0  0  0  0  0  0  0  0  0  0
    3.1968    1.6043    0.0055 H   0  0  0  0  0  0  0  0  0  0  0  0
  1  2  2  0
  2  3  1  0
  3  4  2  0
  4  5  1  0
  5  6  1  0
  6  7  1  0
  7  8  2  0
  8  9  1  0
  9 10  2  0
 10 11  1  0
 11 12  1  0
 12 13  2  0
 13 14  1  0
 14 15  2  0
 15 16  1  0
 16 17  2  0
 17 18  1  0
 18 19  1  0
 19 20  2  0
 20 21  1  0
 21 22  2  0
 22 23  1  0
 23 24  2  0
 24 25  1  0
 25 26  2  0
 26 27  1  0
 27 28  2  0
 28 29  1  0
 29 30  2  0
 11 31  2  0
  6 32  2  0
 32 33  1  0
 33  1  1  0
 32  3  1  0
 31  7  1  0
 30 10  1  0
 30 14  1  0
 23 15  1  0
 29 24  1  0
 20 16  1  0
  1 34  1  0
  2 35  1  0
  4 36  1  0
  8 37  1  0
  9 38  1  0
 12 39  1  0
 17 40  1  0
 18 41  1  0
 19 42  1  0
 21 43  1  0
 22 44  1  0
 25 45  1  0
 26 46  1  0
 27 47  1  0
 28 48  1  0
 31 49  1  0
M  END
