
     RDKit          3D

 38 43  0  0  0  0  0  0  0  0999 V2000
    7.3565    0.8046   -1.9301 C   0  0  0  0  0  0  0  0  0  0  0  0
    8.1716    0.0649   -1.0649 C   0  0  0  0  0  0  0  0  0  0  0  0
    7.2856   -0.5200   -0.1483 C   0  0  0  0  0  0  0  0  0  0  0  0
    7.3014   -1.3286    0.9303 C   0  0  0  0  0  0  0  0  0  0  0  0
    5.6570   -1.5330    1.4532 S   0  0  0  0  0  0  0  0  0  0  0  0
    4.9998   -0.5186    0.1964 C   0  0  0  0  0  0  0  0  0  0  0  0
    3.6054   -0.2219    0.0104 C   0  0  0  0  0  0  0  0  0  0  0  0
    3.0114    0.5636   -0.9621 C   0  0  0  0  0  0  0  0  0  0  0  0
    1.6346    0.6788   -0.9044 N   0  0  0  0  0  0  0  0  0  0  0  0
    1.1650   -0.0169    0.1096 C   0  0  0  0  0  0  0  0  0  0  0  0
    2.3632   -0.8342    1.0327 S   0  0  0  0  0  0  0  0  0  0  0  0
   -0.2452   -0.0895    0.4246 C   0  0  0  0  0  0  0  0  0  0  0  0
   -0.8652   -0.7504    1.4710 C   0  0  0  0  0  0  0  0  0  0  0  0
   -2.2836   -0.5947    1.4614 C   0  0  0  0  0  0  0  0  0  0  0  0
   -2.7237    0.1788    0.4068 C   0  0  0  0  0  0  0  0  0  0  0  0
   -1.4102    0.7123   -0.5525 S   0  0  0  0  0  0  0  0  0  0  0  0
   -4.0791    0.5607    0.0520 C   0  0  0  0  0  0  0  0  0  0  0  0
   -4.5204    1.8865   -0.1983 C   0  0  0  0  0  0  0  0  0  0  0  0
   -5.8789    2.2404   -0.5287 C   0  0  0  0  0  0  0  0  0  0  0  0
   -6.9393    1.3120   -0.6453 C   0  0  0  0  0  0  0  0  0  0  0  0
   -6.4807    0.0250   -0.4006 C   0  0  0  0  0  0  0  0  0  0  0  0
   -7.2153   -1.1294   -0.4357 C   0  0  0  0  0  0  0  0  0  0  0  0
   -6.4023   -2.1941   -0.1566 O   0  0  0  0  0  0  0  0  0  0  0  0
   -5.1402   -1.7068    0.0547 C   0  0  0  0  0  0  0  0  0  0  0  0
   -5.1404   -0.3405   -0.0709 C   0  0  0  0  0  0  0  0  0  0  0  0
    6.0442   -0.0824   -0.5451 C   0  0  0  0  0  0  0  0  0  0  0  0
    6.0075    0.7371   -1.6349 O   0  0  0  0  0  0  0  0  0  0  0  0
    7.5857    1.4214   -2.7897 H   0  0  0  0  0  0  0  0  0  0  0  0
    9.2477   -0.0167   -1.1192 H   0  0  0  0  0  0  0  0  0  0  0  0
    8.1230   -1.8066    1.4446 H   0  0  0  0  0  0  0  0  0  0  0  0
    3.5339    1.0876   -1.7536 H   0  0  0  0  0  0  0  0  0  0  0  0
   -0.3368   -1.3231    2.2237 H   0  0  0  0  0  0  0  0  0  0  0  0
   -2.9458   -1.0261    2.2031 H   0  0  0  0  0  0  0  0  0  0  0  0
   -3.7964    2.7004   -0.1317 H   0  0  0  0  0  0  0  0  0  0  0  0
   -6.0979    3.2958   -0.6991 H   0  0  0  0  0  0  0  0  0  0  0  0
   -7.9529    1.5895   -0.8966 H   0  0  0  0  0  0  0  0  0  0  0  0
   -8.2495   -1.3723   -0.6332 H   0  0  0  0  0  0  0  0  0  0  0  0
   -4.3895   -2.4537    0.2703 H   0  0  0  0  0  0  0  0  0  0  0  0
  1  2  2  0
  2  3  1  0
  3  4  2  0
  4  5  1  0
  5  6  1  0
  6  7  1  0
  7  8  2  0
  8  9  1  0
  9 10  2  0
 10 11  1  0
 10 12  1  0
 12 13  2  0
 13 14  1  0
 14 15  2  0
 15 16  1  0
 15 17  1  0
 17 18  2  0
 18 19  1  0
 19 20  2  0
 20 21  1  0
 21 22  2  0
 22 23  1  0
 23 24  1  0
 24 25  2  0
  6 26  2  0
 26 27  1  0
 27  1  1  0
 26  3  1  0
 11  7  1  0
 16 12  1  0
 25 17  1  0
 25 21  1  0
  1 28  1  0
  2 29  1  0
  4 30  1  0
  8 31  1  0
 13 32  1  0
 14 33  1  0
 18 34  1  0
 19 35  1  0
 20 36  1  0
 22 37  1  0
 24 38  1  0
M  END
