
     RDKit          3D

 47 54  0  0  0  0  0  0  0  0999 V2000
    6.7767   -0.5865   -1.9419 C   0  0  0  0  0  0  0  0  0  0  0  0
    7.5892    0.0387   -0.9715 C   0  0  0  0  0  0  0  0  0  0  0  0
    6.7544    0.3518    0.1282 C   0  0  0  0  0  0  0  0  0  0  0  0
    6.7933    0.9260    1.3477 C   0  0  0  0  0  0  0  0  0  0  0  0
    5.1828    0.8702    2.0054 S   0  0  0  0  0  0  0  0  0  0  0  0
    4.5290    0.0628    0.6181 C   0  0  0  0  0  0  0  0  0  0  0  0
    3.1364   -0.3321    0.5154 C   0  0  0  0  0  0  0  0  0  0  0  0
    2.7816   -1.6722    0.3567 C   0  0  0  0  0  0  0  0  0  0  0  0
    1.5256   -2.1560    0.2140 N   0  0  0  0  0  0  0  0  0  0  0  0
    0.5477   -1.2173    0.2630 C   0  0  0  0  0  0  0  0  0  0  0  0
    0.8087    0.1380    0.4318 C   0  0  0  0  0  0  0  0  0  0  0  0
    2.1141    0.6203    0.5576 C   0  0  0  0  0  0  0  0  0  0  0  0
   -0.4027    0.7984    0.4085 N   0  0  0  0  0  0  0  0  0  0  0  0
   -1.4759   -0.0743    0.2911 C   0  0  0  0  0  0  0  0  0  0  0  0
   -0.8439   -1.3048    0.1465 C   0  0  0  0  0  0  0  0  0  0  0  0
   -1.6487   -2.4487   -0.1099 C   0  0  0  0  0  0  0  0  0  0  0  0
   -1.1888   -3.7227   -0.2748 C   0  0  0  0  0  0  0  0  0  0  0  0
   -2.5218   -4.7543   -0.6087 S   0  0  0  0  0  0  0  0  0  0  0  0
   -3.6454   -3.4434   -0.5241 C   0  0  0  0  0  0  0  0  0  0  0  0
   -3.0371   -2.2352   -0.2417 C   0  0  0  0  0  0  0  0  0  0  0  0
   -3.7256   -0.9960   -0.1075 C   0  0  0  0  0  0  0  0  0  0  0  0
   -5.1118   -0.8494   -0.3036 C   0  0  0  0  0  0  0  0  0  0  0  0
   -5.7139    0.3934   -0.1537 C   0  0  0  0  0  0  0  0  0  0  0  0
   -4.9787    1.5098    0.2527 C   0  0  0  0  0  0  0  0  0  0  0  0
   -5.6612    2.7253    0.4323 C   0  0  0  0  0  0  0  0  0  0  0  0
   -5.0061    3.8592    0.8983 C   0  0  0  0  0  0  0  0  0  0  0  0
   -3.6620    3.7801    1.2150 C   0  0  0  0  0  0  0  0  0  0  0  0
   -2.9710    2.5768    1.0300 C   0  0  0  0  0  0  0  0  0  0  0  0
   -3.5808    1.4080    0.5004 C   0  0  0  0  0  0  0  0  0  0  0  0
   -2.9156    0.1401    0.2435 C   0  0  0  0  0  0  0  0  0  0  0  0
    5.5247   -0.1178   -0.2778 C   0  0  0  0  0  0  0  0  0  0  0  0
    5.4530   -0.6904   -1.5170 N   0  0  0  0  0  0  0  0  0  0  0  0
    7.0426   -0.9680   -2.9196 H   0  0  0  0  0  0  0  0  0  0  0  0
    8.6484    0.2342   -1.0755 H   0  0  0  0  0  0  0  0  0  0  0  0
    7.6136    1.3683    1.8939 H   0  0  0  0  0  0  0  0  0  0  0  0
    3.5495   -2.4441    0.3402 H   0  0  0  0  0  0  0  0  0  0  0  0
    2.3216    1.6788    0.6731 H   0  0  0  0  0  0  0  0  0  0  0  0
   -0.4743    1.8022    0.4065 H   0  0  0  0  0  0  0  0  0  0  0  0
   -0.1807   -4.1109   -0.2259 H   0  0  0  0  0  0  0  0  0  0  0  0
   -4.6898   -3.6656   -0.6854 H   0  0  0  0  0  0  0  0  0  0  0  0
   -5.7365   -1.6898   -0.5901 H   0  0  0  0  0  0  0  0  0  0  0  0
   -6.7850    0.4722   -0.3317 H   0  0  0  0  0  0  0  0  0  0  0  0
   -6.7271    2.7951    0.2220 H   0  0  0  0  0  0  0  0  0  0  0  0
   -5.5520    4.7877    1.0401 H   0  0  0  0  0  0  0  0  0  0  0  0
   -3.1475    4.6458    1.6243 H   0  0  0  0  0  0  0  0  0  0  0  0
   -1.9473    2.5680    1.3774 H   0  0  0  0  0  0  0  0  0  0  0  0
    4.6382   -1.0717   -1.9836 H   0  0  0  0  0  0  0  0  0  0  0  0
  1  2  2  0
  2  3  1  0
  3  4  2  0
  4  5  1  0
  5  6  1  0
  6  7  1  0
  7  8  2  0
  8  9  1  0
  9 10  2  0
 10 11  1  0
 11 12  2  0
 11 13  1  0
 13 14  1  0
 14 15  2  0
 15 16  1  0
 16 17  2  0
 17 18  1  0
 18 19  1  0
 19 20  2  0
 20 21  1  0
 21 22  2  0
 22 23  1  0
 23 24  2  0
 24 25  1  0
 25 26  2  0
 26 27  1  0
 27 28  2  0
 28 29  1  0
 29 30  2  0
  6 31  2  0
 31 32  1  0
 32  1  1  0
 31  3  1  0
 12  7  1  0
 30 14  1  0
 15 10  1  0
 20 16  1  0
 30 21  1  0
 29 24  1  0
  1 33  1  0
  2 34  1  0
  4 35  1  0
  8 36  1  0
 12 37  1  0
 13 38  1  0
 17 39  1  0
 19 40  1  0
 22 41  1  0
 23 42  1  0
 25 43  1  0
 26 44  1  0
 27 45  1  0
 28 46  1  0
 32 47  1  0
M  END
