
     RDKit          3D

 39 45  0  0  0  0  0  0  0  0999 V2000
    6.9284    0.2750    1.3685 C   0  0  0  0  0  0  0  0  0  0  0  0
    7.4364    0.3049    0.0690 C   0  0  0  0  0  0  0  0  0  0  0  0
    6.4169    0.2698   -0.9091 C   0  0  0  0  0  0  0  0  0  0  0  0
    6.4758    0.2816   -2.2554 C   0  0  0  0  0  0  0  0  0  0  0  0
    4.8730    0.2198   -2.8447 S   0  0  0  0  0  0  0  0  0  0  0  0
    4.1485    0.1789   -1.2555 C   0  0  0  0  0  0  0  0  0  0  0  0
    2.6760    0.1172   -1.0904 C   0  0  0  0  0  0  0  0  0  0  0  0
    1.8088    0.0894   -2.1911 C   0  0  0  0  0  0  0  0  0  0  0  0
    0.4514    0.0332   -2.1413 N   0  0  0  0  0  0  0  0  0  0  0  0
   -0.1156    0.0013   -0.9167 C   0  0  0  0  0  0  0  0  0  0  0  0
   -1.5334   -0.0574   -0.8615 C   0  0  0  0  0  0  0  0  0  0  0  0
   -2.6194   -0.0926   -2.2089 S   0  0  0  0  0  0  0  0  0  0  0  0
   -4.0168   -0.1570   -1.2200 C   0  0  0  0  0  0  0  0  0  0  0  0
   -5.3679   -0.2094   -1.6689 C   0  0  0  0  0  0  0  0  0  0  0  0
   -6.4461   -0.2600   -0.7751 C   0  0  0  0  0  0  0  0  0  0  0  0
   -6.0434   -0.2527    0.5527 C   0  0  0  0  0  0  0  0  0  0  0  0
   -6.9762   -0.2982    1.5647 C   0  0  0  0  0  0  0  0  0  0  0  0
   -6.2373   -0.2787    3.1184 S   0  0  0  0  0  0  0  0  0  0  0  0
   -4.6522   -0.2088    2.4406 C   0  0  0  0  0  0  0  0  0  0  0  0
   -4.7233   -0.2021    1.0766 C   0  0  0  0  0  0  0  0  0  0  0  0
   -3.6331   -0.1506    0.1133 C   0  0  0  0  0  0  0  0  0  0  0  0
   -2.2232   -0.0944    0.3644 C   0  0  0  0  0  0  0  0  0  0  0  0
   -1.4298   -0.0700    1.5427 C   0  0  0  0  0  0  0  0  0  0  0  0
   -0.0316   -0.0122    1.4904 C   0  0  0  0  0  0  0  0  0  0  0  0
    0.6291    0.0236    0.2657 C   0  0  0  0  0  0  0  0  0  0  0  0
    2.0331    0.0821    0.1544 C   0  0  0  0  0  0  0  0  0  0  0  0
    5.1539    0.2137   -0.3077 C   0  0  0  0  0  0  0  0  0  0  0  0
    5.1851    0.2023    1.5142 S   0  0  0  0  0  0  0  0  0  0  0  0
    7.5009    0.2921    2.2862 H   0  0  0  0  0  0  0  0  0  0  0  0
    8.4988    0.3500   -0.1380 H   0  0  0  0  0  0  0  0  0  0  0  0
    7.3293    0.3213   -2.9176 H   0  0  0  0  0  0  0  0  0  0  0  0
    2.1754    0.1116   -3.2140 H   0  0  0  0  0  0  0  0  0  0  0  0
   -5.5706   -0.2102   -2.7391 H   0  0  0  0  0  0  0  0  0  0  0  0
   -7.4736   -0.2998   -1.1147 H   0  0  0  0  0  0  0  0  0  0  0  0
   -8.0543   -0.3420    1.4901 H   0  0  0  0  0  0  0  0  0  0  0  0
   -3.8165   -0.1791    3.1164 H   0  0  0  0  0  0  0  0  0  0  0  0
   -1.8826   -0.0955    2.5262 H   0  0  0  0  0  0  0  0  0  0  0  0
    0.5295    0.0043    2.4228 H   0  0  0  0  0  0  0  0  0  0  0  0
    2.5963    0.0987    1.0774 H   0  0  0  0  0  0  0  0  0  0  0  0
  1  2  2  0
  2  3  1  0
  3  4  2  0
  4  5  1  0
  5  6  1  0
  6  7  1  0
  7  8  2  0
  8  9  1  0
  9 10  2  0
 10 11  1  0
 11 12  1  0
 12 13  1  0
 13 14  1  0
 14 15  2  0
 15 16  1  0
 16 17  2  0
 17 18  1  0
 18 19  1  0
 19 20  2  0
 20 21  1  0
 21 22  1  0
 22 23  1  0
 23 24  2  0
 24 25  1  0
 25 26  2  0
  6 27  2  0
 27 28  1  0
 28  1  1  0
 27  3  1  0
 26  7  1  0
 25 10  1  0
 22 11  2  0
 21 13  2  0
 20 16  1  0
  1 29  1  0
  2 30  1  0
  4 31  1  0
  8 32  1  0
 14 33  1  0
 15 34  1  0
 17 35  1  0
 19 36  1  0
 23 37  1  0
 24 38  1  0
 26 39  1  0
M  END
