
     RDKit          3D

 39 45  0  0  0  0  0  0  0  0999 V2000
    6.8213   -1.1239    0.9013 C   0  0  0  0  0  0  0  0  0  0  0  0
    7.3585    0.0870    0.4623 C   0  0  0  0  0  0  0  0  0  0  0  0
    6.3622    1.0002    0.0490 C   0  0  0  0  0  0  0  0  0  0  0  0
    6.4513    2.2553   -0.4335 C   0  0  0  0  0  0  0  0  0  0  0  0
    4.8631    2.8064   -0.7408 S   0  0  0  0  0  0  0  0  0  0  0  0
    4.1038    1.3254   -0.2099 C   0  0  0  0  0  0  0  0  0  0  0  0
    2.6297    1.1728   -0.2371 C   0  0  0  0  0  0  0  0  0  0  0  0
    1.7868    2.1939   -0.6833 C   0  0  0  0  0  0  0  0  0  0  0  0
    0.4281    2.1439   -0.7436 N   0  0  0  0  0  0  0  0  0  0  0  0
   -0.1790    1.0228   -0.3436 C   0  0  0  0  0  0  0  0  0  0  0  0
   -1.5688    0.9591   -0.4004 C   0  0  0  0  0  0  0  0  0  0  0  0
   -2.2439   -0.2019    0.0110 C   0  0  0  0  0  0  0  0  0  0  0  0
   -1.4872   -1.2786    0.4738 C   0  0  0  0  0  0  0  0  0  0  0  0
   -0.0976   -1.2622    0.5489 C   0  0  0  0  0  0  0  0  0  0  0  0
    0.5522   -0.0851    0.1297 C   0  0  0  0  0  0  0  0  0  0  0  0
    1.9564    0.0176    0.1722 C   0  0  0  0  0  0  0  0  0  0  0  0
   -2.2826   -2.3342    0.8372 O   0  0  0  0  0  0  0  0  0  0  0  0
   -3.5784   -1.9534    0.6132 C   0  0  0  0  0  0  0  0  0  0  0  0
   -4.7395   -2.7270    0.8456 C   0  0  0  0  0  0  0  0  0  0  0  0
   -6.0161   -2.1861    0.5606 C   0  0  0  0  0  0  0  0  0  0  0  0
   -5.9469   -0.8883    0.0604 C   0  0  0  0  0  0  0  0  0  0  0  0
   -7.0072   -0.0967   -0.3094 C   0  0  0  0  0  0  0  0  0  0  0  0
   -6.5536    1.1231   -0.7567 O   0  0  0  0  0  0  0  0  0  0  0  0
   -5.1807    1.1153   -0.6731 C   0  0  0  0  0  0  0  0  0  0  0  0
   -4.8134   -0.0956   -0.1810 C   0  0  0  0  0  0  0  0  0  0  0  0
   -3.5530   -0.6661    0.1145 C   0  0  0  0  0  0  0  0  0  0  0  0
    5.0868    0.4408    0.1915 C   0  0  0  0  0  0  0  0  0  0  0  0
    5.0762   -1.2576    0.8509 S   0  0  0  0  0  0  0  0  0  0  0  0
    7.3722   -1.9803    1.2664 H   0  0  0  0  0  0  0  0  0  0  0  0
    8.4247    0.2786    0.4504 H   0  0  0  0  0  0  0  0  0  0  0  0
    7.3189    2.8719   -0.6222 H   0  0  0  0  0  0  0  0  0  0  0  0
    2.1725    3.1486   -1.0315 H   0  0  0  0  0  0  0  0  0  0  0  0
   -2.1193    1.8199   -0.7671 H   0  0  0  0  0  0  0  0  0  0  0  0
    0.4437   -2.1265    0.9165 H   0  0  0  0  0  0  0  0  0  0  0  0
    2.4992   -0.8435    0.5386 H   0  0  0  0  0  0  0  0  0  0  0  0
   -4.6447   -3.7336    1.2423 H   0  0  0  0  0  0  0  0  0  0  0  0
   -6.9319   -2.7398    0.7220 H   0  0  0  0  0  0  0  0  0  0  0  0
   -8.0810   -0.2200   -0.3245 H   0  0  0  0  0  0  0  0  0  0  0  0
   -4.6825    2.0179   -0.9945 H   0  0  0  0  0  0  0  0  0  0  0  0
  1  2  2  0
  2  3  1  0
  3  4  2  0
  4  5  1  0
  5  6  1  0
  6  7  1  0
  7  8  2  0
  8  9  1  0
  9 10  2  0
 10 11  1  0
 11 12  2  0
 12 13  1  0
 13 14  2  0
 14 15  1  0
 15 16  2  0
 13 17  1  0
 17 18  1  0
 18 19  1  0
 19 20  2  0
 20 21  1  0
 21 22  2  0
 22 23  1  0
 23 24  1  0
 24 25  2  0
 25 26  1  0
  6 27  2  0
 27 28  1  0
 28  1  1  0
 27  3  1  0
 16  7  1  0
 26 18  2  0
 15 10  1  0
 25 21  1  0
 26 12  1  0
  1 29  1  0
  2 30  1  0
  4 31  1  0
  8 32  1  0
 11 33  1  0
 14 34  1  0
 16 35  1  0
 19 36  1  0
 20 37  1  0
 22 38  1  0
 24 39  1  0
M  END
