
     RDKit          3D

 42 48  0  0  0  0  0  0  0  0999 V2000
    7.6256    1.2563   -1.4775 C   0  0  0  0  0  0  0  0  0  0  0  0
    8.4318    0.9727   -0.3690 C   0  0  0  0  0  0  0  0  0  0  0  0
    7.5341    0.5903    0.6386 C   0  0  0  0  0  0  0  0  0  0  0  0
    7.5409    0.1879    1.9257 C   0  0  0  0  0  0  0  0  0  0  0  0
    5.8905   -0.0855    2.3946 S   0  0  0  0  0  0  0  0  0  0  0  0
    5.2453    0.3544    0.8359 C   0  0  0  0  0  0  0  0  0  0  0  0
    3.8544    0.3657    0.4780 C   0  0  0  0  0  0  0  0  0  0  0  0
    3.4253    0.8072   -0.6855 N   0  0  0  0  0  0  0  0  0  0  0  0
    2.0499    0.7024   -0.7590 C   0  0  0  0  0  0  0  0  0  0  0  0
    1.4128    0.1732    0.3494 C   0  0  0  0  0  0  0  0  0  0  0  0
    2.6086   -0.1921    1.5267 S   0  0  0  0  0  0  0  0  0  0  0  0
    0.0060   -0.0418    0.5437 C   0  0  0  0  0  0  0  0  0  0  0  0
   -1.2223    0.6637   -0.4712 S   0  0  0  0  0  0  0  0  0  0  0  0
   -2.5391   -0.0656    0.3965 C   0  0  0  0  0  0  0  0  0  0  0  0
   -3.9113    0.1834    0.0223 C   0  0  0  0  0  0  0  0  0  0  0  0
   -4.8469    0.8650    0.8396 C   0  0  0  0  0  0  0  0  0  0  0  0
   -6.2173    1.1023    0.4668 C   0  0  0  0  0  0  0  0  0  0  0  0
   -6.7955    0.6776   -0.7522 C   0  0  0  0  0  0  0  0  0  0  0  0
   -5.8626    0.0013   -1.5278 C   0  0  0  0  0  0  0  0  0  0  0  0
   -6.0940   -0.5552   -2.7587 C   0  0  0  0  0  0  0  0  0  0  0  0
   -4.9117   -1.1397   -3.1611 N   0  0  0  0  0  0  0  0  0  0  0  0
   -3.9368   -0.9610   -2.2004 C   0  0  0  0  0  0  0  0  0  0  0  0
   -4.4994   -0.2397   -1.1746 C   0  0  0  0  0  0  0  0  0  0  0  0
   -2.0034   -0.7863    1.4061 C   0  0  0  0  0  0  0  0  0  0  0  0
   -2.4067   -1.6069    2.4722 C   0  0  0  0  0  0  0  0  0  0  0  0
   -1.2162   -2.0119    3.0854 C   0  0  0  0  0  0  0  0  0  0  0  0
   -0.0739   -1.5123    2.4896 O   0  0  0  0  0  0  0  0  0  0  0  0
   -0.6303   -0.7781    1.4832 C   0  0  0  0  0  0  0  0  0  0  0  0
    6.2950    0.6809    0.0483 C   0  0  0  0  0  0  0  0  0  0  0  0
    6.2729    1.0832   -1.2547 O   0  0  0  0  0  0  0  0  0  0  0  0
    7.8623    1.5865   -2.4804 H   0  0  0  0  0  0  0  0  0  0  0  0
    9.5091    1.0428   -0.3316 H   0  0  0  0  0  0  0  0  0  0  0  0
    8.3592    0.0341    2.6147 H   0  0  0  0  0  0  0  0  0  0  0  0
    1.5600    1.0319   -1.6678 H   0  0  0  0  0  0  0  0  0  0  0  0
   -4.5164    1.2443    1.8073 H   0  0  0  0  0  0  0  0  0  0  0  0
   -6.8477    1.6452    1.1721 H   0  0  0  0  0  0  0  0  0  0  0  0
   -7.8261    0.8598   -1.0203 H   0  0  0  0  0  0  0  0  0  0  0  0
   -6.9743   -0.6009   -3.3852 H   0  0  0  0  0  0  0  0  0  0  0  0
   -4.7789   -1.6356   -4.0326 H   0  0  0  0  0  0  0  0  0  0  0  0
   -2.9452   -1.3661   -2.3487 H   0  0  0  0  0  0  0  0  0  0  0  0
   -3.4069   -1.8862    2.7710 H   0  0  0  0  0  0  0  0  0  0  0  0
   -1.0211   -2.6472    3.9397 H   0  0  0  0  0  0  0  0  0  0  0  0
  1  2  2  0
  2  3  1  0
  3  4  2  0
  4  5  1  0
  5  6  1  0
  6  7  1  0
  7  8  2  0
  8  9  1  0
  9 10  2  0
 10 11  1  0
 10 12  1  0
 12 13  1  0
 13 14  1  0
 14 15  1  0
 15 16  2  0
 16 17  1  0
 17 18  2  0
 18 19  1  0
 19 20  2  0
 20 21  1  0
 21 22  1  0
 22 23  2  0
 14 24  2  0
 24 25  1  0
 25 26  2  0
 26 27  1  0
 27 28  1  0
  6 29  2  0
 29 30  1  0
 30  1  1  0
 29  3  1  0
 11  7  1  0
 28 12  2  0
 23 15  1  0
 28 24  1  0
 23 19  1  0
  1 31  1  0
  2 32  1  0
  4 33  1  0
  9 34  1  0
 16 35  1  0
 17 36  1  0
 18 37  1  0
 20 38  1  0
 21 39  1  0
 22 40  1  0
 25 41  1  0
 26 42  1  0
M  END
