
     RDKit          3D

 46 52  0  0  0  0  0  0  0  0999 V2000
    5.3355   -2.9230    1.5335 C   0  0  0  0  0  0  0  0  0  0  0  0
    6.5430   -2.1950    1.5788 C   0  0  0  0  0  0  0  0  0  0  0  0
    6.2444   -0.8736    1.1688 C   0  0  0  0  0  0  0  0  0  0  0  0
    6.8420    0.3161    0.9635 C   0  0  0  0  0  0  0  0  0  0  0  0
    5.6217    1.4241    0.4180 S   0  0  0  0  0  0  0  0  0  0  0  0
    4.3434    0.2429    0.4962 C   0  0  0  0  0  0  0  0  0  0  0  0
    2.9818    0.5353    0.1565 C   0  0  0  0  0  0  0  0  0  0  0  0
    1.6193   -0.1853    0.9829 S   0  0  0  0  0  0  0  0  0  0  0  0
    0.4474    0.6544    0.0357 C   0  0  0  0  0  0  0  0  0  0  0  0
   -0.9889    0.4969    0.2222 C   0  0  0  0  0  0  0  0  0  0  0  0
   -1.5738    1.1582    1.3104 C   0  0  0  0  0  0  0  0  0  0  0  0
   -2.9419    1.0729    1.5357 C   0  0  0  0  0  0  0  0  0  0  0  0
   -3.7581    0.3231    0.6784 C   0  0  0  0  0  0  0  0  0  0  0  0
   -5.1930    0.2963    0.9635 C   0  0  0  0  0  0  0  0  0  0  0  0
   -6.2249    1.0086    0.3827 C   0  0  0  0  0  0  0  0  0  0  0  0
   -7.4890    0.7488    0.8781 N   0  0  0  0  0  0  0  0  0  0  0  0
   -7.3994   -0.1516    1.8323 C   0  0  0  0  0  0  0  0  0  0  0  0
   -5.8242   -0.7322    2.1845 S   0  0  0  0  0  0  0  0  0  0  0  0
   -3.1939   -0.3620   -0.4346 C   0  0  0  0  0  0  0  0  0  0  0  0
   -3.9730   -1.1384   -1.3289 C   0  0  0  0  0  0  0  0  0  0  0  0
   -3.4092   -1.8087   -2.4141 C   0  0  0  0  0  0  0  0  0  0  0  0
   -2.0455   -1.7275   -2.6359 C   0  0  0  0  0  0  0  0  0  0  0  0
   -1.2501   -0.9753   -1.7722 C   0  0  0  0  0  0  0  0  0  0  0  0
   -1.7915   -0.2762   -0.6640 C   0  0  0  0  0  0  0  0  0  0  0  0
    1.0960    1.4435   -0.8452 C   0  0  0  0  0  0  0  0  0  0  0  0
    0.5461    2.2770   -1.7774 N   0  0  0  0  0  0  0  0  0  0  0  0
    1.6864    2.8011   -2.3793 C   0  0  0  0  0  0  0  0  0  0  0  0
    2.8643    2.2799   -1.8024 C   0  0  0  0  0  0  0  0  0  0  0  0
    2.4714    1.3767   -0.7764 C   0  0  0  0  0  0  0  0  0  0  0  0
    4.8900   -0.9229    0.9190 C   0  0  0  0  0  0  0  0  0  0  0  0
    4.2723   -2.1278    1.1120 N   0  0  0  0  0  0  0  0  0  0  0  0
    5.1482   -3.9620    1.7725 H   0  0  0  0  0  0  0  0  0  0  0  0
    7.5039   -2.5959    1.8728 H   0  0  0  0  0  0  0  0  0  0  0  0
    7.8724    0.6179    1.0815 H   0  0  0  0  0  0  0  0  0  0  0  0
   -0.9612    1.7505    1.9882 H   0  0  0  0  0  0  0  0  0  0  0  0
   -3.3718    1.5997    2.3859 H   0  0  0  0  0  0  0  0  0  0  0  0
   -6.1098    1.7334   -0.4145 H   0  0  0  0  0  0  0  0  0  0  0  0
   -8.2669   -0.5112    2.3702 H   0  0  0  0  0  0  0  0  0  0  0  0
   -5.0476   -1.2393   -1.1856 H   0  0  0  0  0  0  0  0  0  0  0  0
   -4.0384   -2.3964   -3.0776 H   0  0  0  0  0  0  0  0  0  0  0  0
   -1.5943   -2.2511   -3.4748 H   0  0  0  0  0  0  0  0  0  0  0  0
   -0.1810   -0.9481   -1.9771 H   0  0  0  0  0  0  0  0  0  0  0  0
   -0.4373    2.4406   -1.9603 H   0  0  0  0  0  0  0  0  0  0  0  0
    1.5730    3.5146   -3.1856 H   0  0  0  0  0  0  0  0  0  0  0  0
    3.8711    2.5354   -2.1060 H   0  0  0  0  0  0  0  0  0  0  0  0
    3.2911   -2.3447    0.9799 H   0  0  0  0  0  0  0  0  0  0  0  0
  1  2  2  0
  2  3  1  0
  3  4  2  0
  4  5  1  0
  5  6  1  0
  6  7  1  0
  7  8  1  0
  8  9  1  0
  9 10  1  0
 10 11  2  0
 11 12  1  0
 12 13  2  0
 13 14  1  0
 14 15  2  0
 15 16  1  0
 16 17  2  0
 17 18  1  0
 13 19  1  0
 19 20  2  0
 20 21  1  0
 21 22  2  0
 22 23  1  0
 23 24  2  0
  9 25  2  0
 25 26  1  0
 26 27  1  0
 27 28  2  0
 28 29  1  0
  6 30  2  0
 30 31  1  0
 31  1  1  0
 30  3  1  0
 29  7  2  0
 24 10  1  0
 29 25  1  0
 18 14  1  0
 24 19  1  0
  1 32  1  0
  2 33  1  0
  4 34  1  0
 11 35  1  0
 12 36  1  0
 15 37  1  0
 17 38  1  0
 20 39  1  0
 21 40  1  0
 22 41  1  0
 23 42  1  0
 26 43  1  0
 27 44  1  0
 28 45  1  0
 31 46  1  0
M  END
