
     RDKit          3D

 23 26  0  0  0  0  0  0  0  0999 V2000
    4.9298    0.2028    0.1491 C   0  0  0  0  0  0  0  0  0  0  0  0
    4.2343   -0.8525   -0.4019 C   0  0  0  0  0  0  0  0  0  0  0  0
    2.8689   -0.5517   -0.2194 C   0  0  0  0  0  0  0  0  0  0  0  0
    1.7375   -1.2268   -0.5606 N   0  0  0  0  0  0  0  0  0  0  0  0
    0.5774   -0.6094   -0.2129 C   0  0  0  0  0  0  0  0  0  0  0  0
   -0.7725   -0.9870   -0.3920 C   0  0  0  0  0  0  0  0  0  0  0  0
   -1.5532    0.0154    0.1547 C   0  0  0  0  0  0  0  0  0  0  0  0
   -3.0957    0.0574    0.2022 C   0  0  0  0  0  0  0  0  0  0  0  0
   -4.0265   -0.8791   -0.2816 C   0  0  0  0  0  0  0  0  0  0  0  0
   -5.2857   -0.4934   -0.0556 N   0  0  0  0  0  0  0  0  0  0  0  0
   -5.1824    0.7283    0.5936 O   0  0  0  0  0  0  0  0  0  0  0  0
   -3.8707    1.0490    0.7431 C   0  0  0  0  0  0  0  0  0  0  0  0
   -0.7156    0.9834    0.6568 N   0  0  0  0  0  0  0  0  0  0  0  0
    0.5820    0.6182    0.4411 C   0  0  0  0  0  0  0  0  0  0  0  0
    1.6816    1.3127    0.7932 N   0  0  0  0  0  0  0  0  0  0  0  0
    2.8178    0.6781    0.4366 C   0  0  0  0  0  0  0  0  0  0  0  0
    4.0794    1.1370    0.6606 O   0  0  0  0  0  0  0  0  0  0  0  0
    5.9821    0.4306    0.2533 H   0  0  0  0  0  0  0  0  0  0  0  0
    4.6553   -1.7270   -0.8746 H   0  0  0  0  0  0  0  0  0  0  0  0
   -1.1192   -1.8930   -0.8691 H   0  0  0  0  0  0  0  0  0  0  0  0
   -3.8534   -1.8193   -0.7853 H   0  0  0  0  0  0  0  0  0  0  0  0
   -3.6806    1.9878    1.2402 H   0  0  0  0  0  0  0  0  0  0  0  0
   -0.9906    1.8386    1.1169 H   0  0  0  0  0  0  0  0  0  0  0  0
  1  2  2  0
  2  3  1  0
  3  4  2  0
  4  5  1  0
  5  6  1  0
  6  7  2  0
  7  8  1  0
  8  9  1  0
  9 10  2  0
 10 11  1  0
 11 12  1  0
  7 13  1  0
 13 14  1  0
 14 15  1  0
 15 16  2  0
 16 17  1  0
 17  1  1  0
 16  3  1  0
 14  5  2  0
 12  8  2  0
  1 18  1  0
  2 19  1  0
  6 20  1  0
  9 21  1  0
 12 22  1  0
 13 23  1  0
M  END
