
     RDKit          3D

 35 40  0  0  0  0  0  0  0  0999 V2000
   -2.4237    3.9442    0.3581 Si  0  0  0  0  0  4  0  0  0  0  0  0
   -0.6979    3.2266    0.2787 C   0  0  0  0  0  0  0  0  0  0  0  0
   -0.7413    1.8847    0.1665 C   0  0  0  0  0  0  0  0  0  0  0  0
    0.3804    0.9901    0.0790 C   0  0  0  0  0  0  0  0  0  0  0  0
    1.7766    1.1804    0.0795 C   0  0  0  0  0  0  0  0  0  0  0  0
    2.3525   -0.0812   -0.0329 C   0  0  0  0  0  0  0  0  0  0  0  0
    1.3538   -1.0281   -0.1013 O   0  0  0  0  0  0  0  0  0  0  0  0
    0.1695   -0.3737   -0.0332 C   0  0  0  0  0  0  0  0  0  0  0  0
   -1.1460   -0.9212   -0.0646 C   0  0  0  0  0  0  0  0  0  0  0  0
   -1.5049   -2.2270   -0.1703 N   0  0  0  0  0  0  0  0  0  0  0  0
   -2.8846   -2.2741   -0.1589 C   0  0  0  0  0  0  0  0  0  0  0  0
   -3.8906   -3.2743   -0.2318 C   0  0  0  0  0  0  0  0  0  0  0  0
   -5.1373   -2.6893   -0.1688 C   0  0  0  0  0  0  0  0  0  0  0  0
   -5.1114   -0.9749   -0.0252 S   0  0  0  0  0  0  0  0  0  0  0  0
   -3.3791   -0.9953   -0.0461 C   0  0  0  0  0  0  0  0  0  0  0  0
   -2.2670   -0.1172    0.0153 C   0  0  0  0  0  0  0  0  0  0  0  0
   -2.1347    1.3039    0.1332 C   0  0  0  0  0  0  0  0  0  0  0  0
   -3.1192    2.2183    0.2209 C   0  0  0  0  0  0  0  0  0  0  0  0
    3.7367   -0.4448   -0.0788 C   0  0  0  0  0  0  0  0  0  0  0  0
    4.3018   -1.7009   -0.1907 C   0  0  0  0  0  0  0  0  0  0  0  0
    5.7096   -1.5465   -0.1934 C   0  0  0  0  0  0  0  0  0  0  0  0
    5.9714   -0.2001   -0.0830 C   0  0  0  0  0  0  0  0  0  0  0  0
    4.7701    0.4585   -0.0143 N   0  0  0  0  0  0  0  0  0  0  0  0
   -2.7053    4.5714    1.6714 H   0  0  0  0  0  0  0  0  0  0  0  0
   -2.7330    4.7811   -0.8257 H   0  0  0  0  0  0  0  0  0  0  0  0
    0.1767    3.8546    0.3218 H   0  0  0  0  0  0  0  0  0  0  0  0
    2.3042    2.1192    0.1524 H   0  0  0  0  0  0  0  0  0  0  0  0
   -0.8999   -3.0348   -0.2448 H   0  0  0  0  0  0  0  0  0  0  0  0
   -3.7199   -4.3389   -0.3231 H   0  0  0  0  0  0  0  0  0  0  0  0
   -6.0949   -3.1908   -0.2003 H   0  0  0  0  0  0  0  0  0  0  0  0
   -4.1821    2.0393    0.2176 H   0  0  0  0  0  0  0  0  0  0  0  0
    3.7522   -2.6309   -0.2628 H   0  0  0  0  0  0  0  0  0  0  0  0
    6.4492   -2.3332   -0.2677 H   0  0  0  0  0  0  0  0  0  0  0  0
    6.9048    0.3453   -0.0475 H   0  0  0  0  0  0  0  0  0  0  0  0
    4.6634    1.4595    0.0711 H   0  0  0  0  0  0  0  0  0  0  0  0
  1  2  1  0
  2  3  2  0
  3  4  1  0
  4  5  1  0
  5  6  2  0
  6  7  1  0
  7  8  1  0
  8  9  1  0
  9 10  1  0
 10 11  1  0
 11 12  1  0
 12 13  2  0
 13 14  1  0
 14 15  1  0
 15 16  1  0
 16 17  1  0
 17 18  2  0
  6 19  1  0
 19 20  2  0
 20 21  1  0
 21 22  2  0
 22 23  1  0
 18  1  1  0
 23 19  1  0
 17  3  1  0
  8  4  2  0
 16  9  2  0
 15 11  2  0
  1 24  1  0
  1 25  1  0
  2 26  1  0
  5 27  1  0
 10 28  1  0
 12 29  1  0
 13 30  1  0
 18 31  1  0
 20 32  1  0
 21 33  1  0
 22 34  1  0
 23 35  1  0
M  END
