
     RDKit          3D

 23 26  0  0  0  0  0  0  0  0999 V2000
   -4.9901   -0.4145    0.3873 C   0  0  0  0  0  0  0  0  0  0  0  0
   -4.2804   -0.6844   -0.7636 C   0  0  0  0  0  0  0  0  0  0  0  0
   -2.9261   -0.4576   -0.4437 C   0  0  0  0  0  0  0  0  0  0  0  0
   -1.7895   -0.5646   -1.1837 N   0  0  0  0  0  0  0  0  0  0  0  0
   -0.6434   -0.2567   -0.5196 C   0  0  0  0  0  0  0  0  0  0  0  0
    0.7054   -0.2471   -0.9345 C   0  0  0  0  0  0  0  0  0  0  0  0
    1.4641    0.1477    0.1525 C   0  0  0  0  0  0  0  0  0  0  0  0
    3.0095    0.3029    0.1661 C   0  0  0  0  0  0  0  0  0  0  0  0
    3.7350    0.6993    1.2699 C   0  0  0  0  0  0  0  0  0  0  0  0
    5.4063    0.7470    0.8772 S   0  0  0  0  0  0  0  0  0  0  0  0
    5.0223    0.2398   -0.7156 C   0  0  0  0  0  0  0  0  0  0  0  0
    3.7483    0.0403   -0.9693 N   0  0  0  0  0  0  0  0  0  0  0  0
    0.6169    0.3761    1.2081 N   0  0  0  0  0  0  0  0  0  0  0  0
   -0.6685    0.1347    0.8160 C   0  0  0  0  0  0  0  0  0  0  0  0
   -1.7747    0.2509    1.5771 N   0  0  0  0  0  0  0  0  0  0  0  0
   -2.8951   -0.0604    0.8928 C   0  0  0  0  0  0  0  0  0  0  0  0
   -4.1588   -0.0350    1.3985 O   0  0  0  0  0  0  0  0  0  0  0  0
   -6.0413   -0.4427    0.6403 H   0  0  0  0  0  0  0  0  0  0  0  0
   -4.6846   -1.0037   -1.7123 H   0  0  0  0  0  0  0  0  0  0  0  0
    1.0852   -0.4992   -1.9154 H   0  0  0  0  0  0  0  0  0  0  0  0
    3.3929    0.9579    2.2603 H   0  0  0  0  0  0  0  0  0  0  0  0
    5.7902    0.0941   -1.4643 H   0  0  0  0  0  0  0  0  0  0  0  0
    0.8764    0.6750    2.1357 H   0  0  0  0  0  0  0  0  0  0  0  0
  1  2  2  0
  2  3  1  0
  3  4  2  0
  4  5  1  0
  5  6  1  0
  6  7  2  0
  7  8  1  0
  8  9  2  0
  9 10  1  0
 10 11  1  0
 11 12  2  0
  7 13  1  0
 13 14  1  0
 14 15  1  0
 15 16  2  0
 16 17  1  0
 17  1  1  0
 16  3  1  0
 14  5  2  0
 12  8  1  0
  1 18  1  0
  2 19  1  0
  6 20  1  0
  9 21  1  0
 11 22  1  0
 13 23  1  0
M  END
