
     RDKit          3D

 37 43  0  0  0  0  0  0  0  0999 V2000
    6.3671    1.0168   -1.7919 C   0  0  0  0  0  0  0  0  0  0  0  0
    6.6171    0.1638   -0.7352 C   0  0  0  0  0  0  0  0  0  0  0  0
    5.3557   -0.1955   -0.2144 C   0  0  0  0  0  0  0  0  0  0  0  0
    5.0038   -1.0013    0.8159 N   0  0  0  0  0  0  0  0  0  0  0  0
    3.6829   -1.1750    1.1086 C   0  0  0  0  0  0  0  0  0  0  0  0
    2.6313   -0.5697    0.4062 C   0  0  0  0  0  0  0  0  0  0  0  0
    2.9595    0.2620   -0.6553 C   0  0  0  0  0  0  0  0  0  0  0  0
    1.8704    0.7969   -1.2677 O   0  0  0  0  0  0  0  0  0  0  0  0
    0.7811    0.3109   -0.5960 C   0  0  0  0  0  0  0  0  0  0  0  0
   -0.5634    0.6013   -0.8861 C   0  0  0  0  0  0  0  0  0  0  0  0
   -1.5941    0.0274   -0.1005 C   0  0  0  0  0  0  0  0  0  0  0  0
   -3.0003    0.2909   -0.3610 C   0  0  0  0  0  0  0  0  0  0  0  0
   -3.6758   -0.2173   -1.4963 C   0  0  0  0  0  0  0  0  0  0  0  0
   -5.0399    0.0348   -1.7772 C   0  0  0  0  0  0  0  0  0  0  0  0
   -5.8579    0.8240   -0.9527 C   0  0  0  0  0  0  0  0  0  0  0  0
   -5.2421    1.3720    0.1974 C   0  0  0  0  0  0  0  0  0  0  0  0
   -5.8456    2.1518    1.1074 N   0  0  0  0  0  0  0  0  0  0  0  0
   -4.6932    2.5292    2.2406 S   0  0  0  0  0  0  0  0  0  0  0  0
   -3.3809    1.7171    1.6343 N   0  0  0  0  0  0  0  0  0  0  0  0
   -3.7858    1.1078    0.5055 C   0  0  0  0  0  0  0  0  0  0  0  0
   -1.1204   -0.8224    0.9243 C   0  0  0  0  0  0  0  0  0  0  0  0
   -1.9427   -1.5100    1.7944 C   0  0  0  0  0  0  0  0  0  0  0  0
   -1.0582   -2.4662    2.9280 S   0  0  0  0  0  0  0  0  0  0  0  0
    0.4581   -1.9842    2.2690 C   0  0  0  0  0  0  0  0  0  0  0  0
    0.2375   -1.1297    1.2297 C   0  0  0  0  0  0  0  0  0  0  0  0
    1.2334   -0.5158    0.4143 C   0  0  0  0  0  0  0  0  0  0  0  0
    4.4342    0.4656   -0.9927 C   0  0  0  0  0  0  0  0  0  0  0  0
    5.0259    1.2067   -1.9566 O   0  0  0  0  0  0  0  0  0  0  0  0
    6.9992    1.5467   -2.4915 H   0  0  0  0  0  0  0  0  0  0  0  0
    7.5854   -0.1587   -0.3835 H   0  0  0  0  0  0  0  0  0  0  0  0
    3.5011   -1.8358    1.9505 H   0  0  0  0  0  0  0  0  0  0  0  0
   -0.7991    1.2748   -1.7055 H   0  0  0  0  0  0  0  0  0  0  0  0
   -3.1205   -0.8445   -2.1966 H   0  0  0  0  0  0  0  0  0  0  0  0
   -5.4753   -0.4038   -2.6759 H   0  0  0  0  0  0  0  0  0  0  0  0
   -6.9009    1.0097   -1.1793 H   0  0  0  0  0  0  0  0  0  0  0  0
   -3.0224   -1.5151    1.8512 H   0  0  0  0  0  0  0  0  0  0  0  0
    1.3746   -2.3651    2.6923 H   0  0  0  0  0  0  0  0  0  0  0  0
  1  2  2  0
  2  3  1  0
  3  4  2  0
  4  5  1  0
  5  6  2  0
  6  7  1  0
  7  8  1  0
  8  9  1  0
  9 10  1  0
 10 11  2  0
 11 12  1  0
 12 13  2  0
 13 14  1  0
 14 15  2  0
 15 16  1  0
 16 17  2  0
 17 18  1  0
 18 19  1  0
 19 20  2  0
 11 21  1  0
 21 22  2  0
 22 23  1  0
 23 24  1  0
 24 25  2  0
 25 26  1  0
  7 27  2  0
 27 28  1  0
 28  1  1  0
 27  3  1  0
 26  6  1  0
 26  9  2  0
 20 12  1  0
 25 21  1  0
 20 16  1  0
  1 29  1  0
  2 30  1  0
  5 31  1  0
 10 32  1  0
 13 33  1  0
 14 34  1  0
 15 35  1  0
 22 36  1  0
 24 37  1  0
M  END
