
     RDKit          3D

 36 41  0  0  0  0  0  0  0  0999 V2000
    6.6904    1.2258   -1.9644 C   0  0  0  0  0  0  0  0  0  0  0  0
    6.6735   -0.0883   -1.5345 C   0  0  0  0  0  0  0  0  0  0  0  0
    5.3916   -0.4817   -1.0540 C   0  0  0  0  0  0  0  0  0  0  0  0
    5.0310   -1.6962   -0.5616 N   0  0  0  0  0  0  0  0  0  0  0  0
    3.7564   -1.9121   -0.1407 C   0  0  0  0  0  0  0  0  0  0  0  0
    2.7475   -0.9447   -0.1760 C   0  0  0  0  0  0  0  0  0  0  0  0
    1.3707   -0.8614    0.1763 C   0  0  0  0  0  0  0  0  0  0  0  0
    0.4154   -1.7353    0.7238 C   0  0  0  0  0  0  0  0  0  0  0  0
   -0.8907   -1.2620    0.9302 C   0  0  0  0  0  0  0  0  0  0  0  0
   -1.2679    0.0532    0.6021 C   0  0  0  0  0  0  0  0  0  0  0  0
   -0.3135    0.9316    0.0606 C   0  0  0  0  0  0  0  0  0  0  0  0
    0.9751    0.4375   -0.1347 C   0  0  0  0  0  0  0  0  0  0  0  0
    2.0185    1.1468   -0.6514 O   0  0  0  0  0  0  0  0  0  0  0  0
    3.0750    0.3011   -0.6692 C   0  0  0  0  0  0  0  0  0  0  0  0
    4.5059    0.5645   -1.1486 C   0  0  0  0  0  0  0  0  0  0  0  0
    5.1547    1.9791   -1.7849 S   0  0  0  0  0  0  0  0  0  0  0  0
   -2.6317    0.5136    0.8378 C   0  0  0  0  0  0  0  0  0  0  0  0
   -2.9754    1.4804    1.8201 C   0  0  0  0  0  0  0  0  0  0  0  0
   -4.3094    1.9385    2.0728 C   0  0  0  0  0  0  0  0  0  0  0  0
   -5.4440    1.4836    1.3696 C   0  0  0  0  0  0  0  0  0  0  0  0
   -5.1080    0.5408    0.3986 C   0  0  0  0  0  0  0  0  0  0  0  0
   -6.0478   -0.0367   -0.4189 C   0  0  0  0  0  0  0  0  0  0  0  0
   -5.3226   -1.1403   -1.5183 S   0  0  0  0  0  0  0  0  0  0  0  0
   -3.7467   -0.8392   -0.8983 C   0  0  0  0  0  0  0  0  0  0  0  0
   -3.7682    0.0699    0.1350 C   0  0  0  0  0  0  0  0  0  0  0  0
    7.5234    1.7809   -2.3736 H   0  0  0  0  0  0  0  0  0  0  0  0
    7.5362   -0.7406   -1.5612 H   0  0  0  0  0  0  0  0  0  0  0  0
    3.5647   -2.9130    0.2359 H   0  0  0  0  0  0  0  0  0  0  0  0
    0.6736   -2.7567    0.9876 H   0  0  0  0  0  0  0  0  0  0  0  0
   -1.6270   -1.9399    1.3625 H   0  0  0  0  0  0  0  0  0  0  0  0
   -0.5594    1.9536   -0.2068 H   0  0  0  0  0  0  0  0  0  0  0  0
   -2.1769    1.9021    2.4335 H   0  0  0  0  0  0  0  0  0  0  0  0
   -4.4522    2.6830    2.8570 H   0  0  0  0  0  0  0  0  0  0  0  0
   -6.4436    1.8430    1.5744 H   0  0  0  0  0  0  0  0  0  0  0  0
   -7.1169    0.1234   -0.4434 H   0  0  0  0  0  0  0  0  0  0  0  0
   -2.9015   -1.3511   -1.3371 H   0  0  0  0  0  0  0  0  0  0  0  0
  1  2  2  0
  2  3  1  0
  3  4  2  0
  4  5  1  0
  5  6  2  0
  6  7  1  0
  7  8  2  0
  8  9  1  0
  9 10  2  0
 10 11  1  0
 11 12  2  0
 12 13  1  0
 13 14  1  0
 14 15  2  0
 15 16  1  0
 10 17  1  0
 17 18  2  0
 18 19  1  0
 19 20  2  0
 20 21  1  0
 21 22  2  0
 22 23  1  0
 23 24  1  0
 24 25  2  0
 16  1  1  0
 25 17  1  0
 15  3  1  0
 25 21  1  0
 14  6  1  0
 12  7  1  0
  1 26  1  0
  2 27  1  0
  5 28  1  0
  8 29  1  0
  9 30  1  0
 11 31  1  0
 18 32  1  0
 19 33  1  0
 20 34  1  0
 22 35  1  0
 24 36  1  0
M  END
