
     RDKit          3D

 35 40  0  0  0  0  0  0  0  0999 V2000
   -5.7457    0.1365   -0.1966 C   0  0  0  0  0  0  0  0  0  0  0  0
   -5.4224   -0.0361    1.1294 C   0  0  0  0  0  0  0  0  0  0  0  0
   -4.0122   -0.0791    1.2158 C   0  0  0  0  0  0  0  0  0  0  0  0
   -3.2459   -0.2337    2.3161 N   0  0  0  0  0  0  0  0  0  0  0  0
   -1.9090   -0.2363    2.0917 C   0  0  0  0  0  0  0  0  0  0  0  0
   -1.2327   -0.0992    0.8677 C   0  0  0  0  0  0  0  0  0  0  0  0
    0.2455   -0.1171    0.7401 C   0  0  0  0  0  0  0  0  0  0  0  0
    1.1328   -0.2712    1.8147 C   0  0  0  0  0  0  0  0  0  0  0  0
    2.4926   -0.2939    1.7468 N   0  0  0  0  0  0  0  0  0  0  0  0
    3.0802   -0.1565    0.5366 C   0  0  0  0  0  0  0  0  0  0  0  0
    2.3332    0.0044   -0.6177 C   0  0  0  0  0  0  0  0  0  0  0  0
    0.9240    0.0229   -0.5082 C   0  0  0  0  0  0  0  0  0  0  0  0
    0.0181    0.1768   -1.5774 C   0  0  0  0  0  0  0  0  0  0  0  0
    0.3124    0.3358   -2.9075 C   0  0  0  0  0  0  0  0  0  0  0  0
   -0.8431    0.4513   -3.6225 O   0  0  0  0  0  0  0  0  0  0  0  0
   -1.8820    0.3649   -2.7388 C   0  0  0  0  0  0  0  0  0  0  0  0
   -1.4046    0.1951   -1.4631 C   0  0  0  0  0  0  0  0  0  0  0  0
   -2.1043    0.0612   -0.2599 C   0  0  0  0  0  0  0  0  0  0  0  0
   -3.4917    0.0690   -0.0681 C   0  0  0  0  0  0  0  0  0  0  0  0
   -4.5739    0.1983   -0.9081 N   0  0  0  0  0  0  0  0  0  0  0  0
    4.5458   -0.1956    0.5818 C   0  0  0  0  0  0  0  0  0  0  0  0
    5.3733   -0.3518    1.6841 C   0  0  0  0  0  0  0  0  0  0  0  0
    6.7354   -0.3528    1.4425 N   0  0  0  0  0  0  0  0  0  0  0  0
    6.9381   -0.1971    0.1552 C   0  0  0  0  0  0  0  0  0  0  0  0
    5.5384   -0.0440   -0.8180 S   0  0  0  0  0  0  0  0  0  0  0  0
   -6.7031    0.2203   -0.6937 H   0  0  0  0  0  0  0  0  0  0  0  0
   -6.1167   -0.1229    1.9535 H   0  0  0  0  0  0  0  0  0  0  0  0
   -1.3574   -0.3645    3.0202 H   0  0  0  0  0  0  0  0  0  0  0  0
    0.7762   -0.3901    2.8344 H   0  0  0  0  0  0  0  0  0  0  0  0
    2.8063    0.1141   -1.5856 H   0  0  0  0  0  0  0  0  0  0  0  0
    1.2210    0.3877   -3.4907 H   0  0  0  0  0  0  0  0  0  0  0  0
   -2.8545    0.4443   -3.1976 H   0  0  0  0  0  0  0  0  0  0  0  0
   -4.5275    0.3218   -1.9079 H   0  0  0  0  0  0  0  0  0  0  0  0
    5.0213   -0.4706    2.7028 H   0  0  0  0  0  0  0  0  0  0  0  0
    7.9320   -0.1667   -0.2719 H   0  0  0  0  0  0  0  0  0  0  0  0
  1  2  2  0
  2  3  1  0
  3  4  2  0
  4  5  1  0
  5  6  2  0
  6  7  1  0
  7  8  2  0
  8  9  1  0
  9 10  2  0
 10 11  1  0
 11 12  2  0
 12 13  1  0
 13 14  2  0
 14 15  1  0
 15 16  1  0
 16 17  2  0
 17 18  1  0
 18 19  2  0
 19 20  1  0
 10 21  1  0
 21 22  2  0
 22 23  1  0
 23 24  2  0
 24 25  1  0
 20  1  1  0
 25 21  1  0
 19  3  1  0
 18  6  1  0
 12  7  1  0
 17 13  1  0
  1 26  1  0
  2 27  1  0
  5 28  1  0
  8 29  1  0
 11 30  1  0
 14 31  1  0
 16 32  1  0
 20 33  1  0
 22 34  1  0
 24 35  1  0
M  END
