
     RDKit          3D

 28 32  0  0  0  0  0  0  0  0999 V2000
    5.5056    1.3316    0.1266 C   0  0  0  0  0  0  0  0  0  0  0  0
    4.3387    1.9232    0.5683 C   0  0  0  0  0  0  0  0  0  0  0  0
    3.2529    1.1148    0.1830 C   0  0  0  0  0  0  0  0  0  0  0  0
    1.9059    1.2242    0.3508 O   0  0  0  0  0  0  0  0  0  0  0  0
    1.3739    0.1096   -0.2390 C   0  0  0  0  0  0  0  0  0  0  0  0
    2.3486   -0.6872   -0.8005 C   0  0  0  0  0  0  0  0  0  0  0  0
    3.5572   -0.0125   -0.5016 C   0  0  0  0  0  0  0  0  0  0  0  0
    5.2682   -0.1547   -0.7280 S   0  0  0  0  0  0  0  0  0  0  0  0
   -0.0737    0.0292   -0.1742 C   0  0  0  0  0  0  0  0  0  0  0  0
   -0.8962    1.1599   -0.3894 C   0  0  0  0  0  0  0  0  0  0  0  0
   -2.3140    1.0716   -0.3621 C   0  0  0  0  0  0  0  0  0  0  0  0
   -3.4723    2.3301   -0.6129 S   0  0  0  0  0  0  0  0  0  0  0  0
   -4.7997    1.2631   -0.3878 C   0  0  0  0  0  0  0  0  0  0  0  0
   -4.4033   -0.0312   -0.1249 C   0  0  0  0  0  0  0  0  0  0  0  0
   -2.9981   -0.1072   -0.1183 C   0  0  0  0  0  0  0  0  0  0  0  0
   -2.2101   -1.2831    0.1250 C   0  0  0  0  0  0  0  0  0  0  0  0
   -2.7105   -2.5229    0.4000 C   0  0  0  0  0  0  0  0  0  0  0  0
   -1.4018   -3.6085    0.6546 S   0  0  0  0  0  0  0  0  0  0  0  0
   -0.2263   -2.3695    0.3920 C   0  0  0  0  0  0  0  0  0  0  0  0
   -0.7951   -1.1491    0.0852 C   0  0  0  0  0  0  0  0  0  0  0  0
    6.5156    1.6964    0.2582 H   0  0  0  0  0  0  0  0  0  0  0  0
    4.2764    2.8522    1.1173 H   0  0  0  0  0  0  0  0  0  0  0  0
    2.2163   -1.6073   -1.3494 H   0  0  0  0  0  0  0  0  0  0  0  0
   -0.4324    2.1243   -0.5928 H   0  0  0  0  0  0  0  0  0  0  0  0
   -5.8093    1.6440   -0.4594 H   0  0  0  0  0  0  0  0  0  0  0  0
   -5.0995   -0.8415    0.0464 H   0  0  0  0  0  0  0  0  0  0  0  0
   -3.7327   -2.8646    0.4779 H   0  0  0  0  0  0  0  0  0  0  0  0
    0.8159   -2.6349    0.4932 H   0  0  0  0  0  0  0  0  0  0  0  0
  1  2  2  0
  2  3  1  0
  3  4  1  0
  4  5  1  0
  5  6  2  0
  6  7  1  0
  7  8  1  0
  5  9  1  0
  9 10  2  0
 10 11  1  0
 11 12  1  0
 12 13  1  0
 13 14  2  0
 14 15  1  0
 15 16  1  0
 16 17  2  0
 17 18  1  0
 18 19  1  0
 19 20  2  0
  8  1  1  0
 20  9  1  0
  7  3  2  0
 15 11  2  0
 20 16  1  0
  1 21  1  0
  2 22  1  0
  6 23  1  0
 10 24  1  0
 13 25  1  0
 14 26  1  0
 17 27  1  0
 19 28  1  0
M  END
