
     RDKit          3D

 42 48  0  0  0  0  0  0  0  0999 V2000
    6.6836    0.3565    0.1324 C   0  0  0  0  0  0  0  0  0  0  0  0
    6.1150    1.5006   -0.3828 C   0  0  0  0  0  0  0  0  0  0  0  0
    4.7091    1.2762   -0.3472 C   0  0  0  0  0  0  0  0  0  0  0  0
    3.2381    2.1044   -0.7655 S   0  0  0  0  0  0  0  0  0  0  0  0
    2.2540    0.7621   -0.2330 C   0  0  0  0  0  0  0  0  0  0  0  0
    3.1111   -0.2264    0.2282 C   0  0  0  0  0  0  0  0  0  0  0  0
    2.5928   -1.4474    0.7302 C   0  0  0  0  0  0  0  0  0  0  0  0
    3.1746   -2.5677    1.2364 C   0  0  0  0  0  0  0  0  0  0  0  0
    2.1730   -3.4427    1.5695 O   0  0  0  0  0  0  0  0  0  0  0  0
    0.9806   -2.8395    1.2596 C   0  0  0  0  0  0  0  0  0  0  0  0
    1.1945   -1.5859    0.7296 C   0  0  0  0  0  0  0  0  0  0  0  0
    0.2174   -0.6659    0.2922 C   0  0  0  0  0  0  0  0  0  0  0  0
   -1.2123   -0.9131    0.3373 C   0  0  0  0  0  0  0  0  0  0  0  0
   -2.1900    0.0123   -0.0957 C   0  0  0  0  0  0  0  0  0  0  0  0
   -3.6255   -0.2355   -0.0426 C   0  0  0  0  0  0  0  0  0  0  0  0
   -4.4627    0.5269    0.7872 C   0  0  0  0  0  0  0  0  0  0  0  0
   -5.8359    0.2770    0.8468 C   0  0  0  0  0  0  0  0  0  0  0  0
   -6.3924   -0.7427    0.0783 C   0  0  0  0  0  0  0  0  0  0  0  0
   -5.5772   -1.5129   -0.7477 C   0  0  0  0  0  0  0  0  0  0  0  0
   -4.2038   -1.2622   -0.8054 C   0  0  0  0  0  0  0  0  0  0  0  0
   -1.5879    1.1822   -0.5773 C   0  0  0  0  0  0  0  0  0  0  0  0
   -2.2451    2.2690   -1.1042 C   0  0  0  0  0  0  0  0  0  0  0  0
   -1.2920    3.1892   -1.4629 N   0  0  0  0  0  0  0  0  0  0  0  0
   -0.0336    2.7023   -1.1831 C   0  0  0  0  0  0  0  0  0  0  0  0
   -0.1700    1.4475   -0.6345 C   0  0  0  0  0  0  0  0  0  0  0  0
    0.8356    0.5586   -0.2068 C   0  0  0  0  0  0  0  0  0  0  0  0
    4.4833    0.0345    0.1756 C   0  0  0  0  0  0  0  0  0  0  0  0
    5.6985   -0.5338    0.4718 N   0  0  0  0  0  0  0  0  0  0  0  0
    7.7236    0.0992    0.2876 H   0  0  0  0  0  0  0  0  0  0  0  0
    6.6319    2.3813   -0.7382 H   0  0  0  0  0  0  0  0  0  0  0  0
    4.1757   -2.9189    1.4304 H   0  0  0  0  0  0  0  0  0  0  0  0
    0.1044   -3.4336    1.4783 H   0  0  0  0  0  0  0  0  0  0  0  0
   -1.5659   -1.8631    0.7376 H   0  0  0  0  0  0  0  0  0  0  0  0
   -4.0416    1.3224    1.3993 H   0  0  0  0  0  0  0  0  0  0  0  0
   -6.4682    0.8778    1.4951 H   0  0  0  0  0  0  0  0  0  0  0  0
   -7.4606   -0.9376    0.1238 H   0  0  0  0  0  0  0  0  0  0  0  0
   -6.0084   -2.3087   -1.3493 H   0  0  0  0  0  0  0  0  0  0  0  0
   -3.5825   -1.8693   -1.4608 H   0  0  0  0  0  0  0  0  0  0  0  0
   -3.2951    2.4753   -1.2632 H   0  0  0  0  0  0  0  0  0  0  0  0
   -1.4829    4.0908   -1.8806 H   0  0  0  0  0  0  0  0  0  0  0  0
    0.8223    3.3160   -1.4184 H   0  0  0  0  0  0  0  0  0  0  0  0
    5.8145   -1.4550    0.8721 H   0  0  0  0  0  0  0  0  0  0  0  0
  1  2  2  0
  2  3  1  0
  3  4  1  0
  4  5  1  0
  5  6  2  0
  6  7  1  0
  7  8  2  0
  8  9  1  0
  9 10  1  0
 10 11  2  0
 11 12  1  0
 12 13  1  0
 13 14  2  0
 14 15  1  0
 15 16  2  0
 16 17  1  0
 17 18  2  0
 18 19  1  0
 19 20  2  0
 14 21  1  0
 21 22  2  0
 22 23  1  0
 23 24  1  0
 24 25  2  0
 25 26  1  0
  6 27  1  0
 27 28  1  0
 28  1  1  0
 27  3  2  0
 26  5  1  0
 11  7  1  0
 26 12  2  0
 20 15  1  0
 25 21  1  0
  1 29  1  0
  2 30  1  0
  8 31  1  0
 10 32  1  0
 13 33  1  0
 16 34  1  0
 17 35  1  0
 18 36  1  0
 19 37  1  0
 20 38  1  0
 22 39  1  0
 23 40  1  0
 24 41  1  0
 28 42  1  0
M  END
