
     RDKit          3D

 32 37  0  0  0  0  0  0  0  0999 V2000
    6.9685    0.4201   -0.1153 C   0  0  0  0  0  0  0  0  0  0  0  0
    6.1710    0.3314   -1.2483 C   0  0  0  0  0  0  0  0  0  0  0  0
    4.8064    0.2110   -0.8678 C   0  0  0  0  0  0  0  0  0  0  0  0
    3.1810    0.0528   -1.5011 S   0  0  0  0  0  0  0  0  0  0  0  0
    2.4743    0.0085    0.0107 C   0  0  0  0  0  0  0  0  0  0  0  0
    1.2211   -0.0988    0.5053 C   0  0  0  0  0  0  0  0  0  0  0  0
    0.0561   -0.2208   -0.1508 N   0  0  0  0  0  0  0  0  0  0  0  0
   -0.9156   -0.2798    0.8389 C   0  0  0  0  0  0  0  0  0  0  0  0
   -0.3083   -0.2243    2.1014 C   0  0  0  0  0  0  0  0  0  0  0  0
    1.0835   -0.0946    1.8636 C   0  0  0  0  0  0  0  0  0  0  0  0
    2.6934    0.0618    2.4994 S   0  0  0  0  0  0  0  0  0  0  0  0
    3.4212    0.1091    0.9841 C   0  0  0  0  0  0  0  0  0  0  0  0
    4.6917    0.2192    0.5055 C   0  0  0  0  0  0  0  0  0  0  0  0
    6.1095    0.3614    1.3942 S   0  0  0  0  0  0  0  0  0  0  0  0
   -2.3229   -0.4390    0.5150 C   0  0  0  0  0  0  0  0  0  0  0  0
   -3.1174   -1.4945    1.0213 C   0  0  0  0  0  0  0  0  0  0  0  0
   -4.4990   -1.6815    0.6929 C   0  0  0  0  0  0  0  0  0  0  0  0
   -5.2271   -0.8321   -0.1679 C   0  0  0  0  0  0  0  0  0  0  0  0
   -4.4437    0.2162   -0.6518 C   0  0  0  0  0  0  0  0  0  0  0  0
   -4.9441    1.1784   -1.4936 C   0  0  0  0  0  0  0  0  0  0  0  0
   -3.7457    2.3454   -1.8861 S   0  0  0  0  0  0  0  0  0  0  0  0
   -2.5576    1.5612   -0.9199 C   0  0  0  0  0  0  0  0  0  0  0  0
   -3.0488    0.4183   -0.3311 C   0  0  0  0  0  0  0  0  0  0  0  0
    8.0454    0.5196   -0.0833 H   0  0  0  0  0  0  0  0  0  0  0  0
    6.5433    0.3518   -2.2641 H   0  0  0  0  0  0  0  0  0  0  0  0
   -0.0649   -0.2662   -1.1556 H   0  0  0  0  0  0  0  0  0  0  0  0
   -0.8118   -0.2645    3.0578 H   0  0  0  0  0  0  0  0  0  0  0  0
   -2.6557   -2.2201    1.6923 H   0  0  0  0  0  0  0  0  0  0  0  0
   -5.0163   -2.5336    1.1356 H   0  0  0  0  0  0  0  0  0  0  0  0
   -6.2716   -0.9915   -0.4007 H   0  0  0  0  0  0  0  0  0  0  0  0
   -5.9425    1.2747   -1.8975 H   0  0  0  0  0  0  0  0  0  0  0  0
   -1.5732    2.0003   -0.8414 H   0  0  0  0  0  0  0  0  0  0  0  0
  1  2  2  0
  2  3  1  0
  3  4  1  0
  4  5  1  0
  5  6  1  0
  6  7  1  0
  7  8  1  0
  8  9  2  0
  9 10  1  0
 10 11  1  0
 11 12  1  0
 12 13  1  0
 13 14  1  0
  8 15  1  0
 15 16  2  0
 16 17  1  0
 17 18  2  0
 18 19  1  0
 19 20  2  0
 20 21  1  0
 21 22  1  0
 22 23  2  0
 14  1  1  0
 23 15  1  0
 13  3  2  0
 23 19  1  0
 12  5  2  0
 10  6  2  0
  1 24  1  0
  2 25  1  0
  7 26  1  0
  9 27  1  0
 16 28  1  0
 17 29  1  0
 18 30  1  0
 20 31  1  0
 22 32  1  0
M  END
