
     RDKit          3D

 37 39  0  0  0  0  0  0  0  0999 V2000
    5.4460   -0.6589    2.0185 C   0  0  0  0  0  0  0  0  0  0  0  0
    4.7887   -1.8140    1.6019 C   0  0  0  0  0  0  0  0  0  0  0  0
    3.5814   -1.7209    0.9033 C   0  0  0  0  0  0  0  0  0  0  0  0
    3.0181   -0.4701    0.6122 C   0  0  0  0  0  0  0  0  0  0  0  0
    1.7586   -0.3585   -0.1181 C   0  0  0  0  0  0  0  0  0  0  0  0
    0.7364    0.5694   -0.0602 C   0  0  0  0  0  0  0  0  0  0  0  0
   -0.2323    0.1666   -1.0150 C   0  0  0  0  0  0  0  0  0  0  0  0
   -1.4057    0.8103   -1.2661 N   0  0  0  0  0  0  0  0  0  0  0  0
   -2.3941    0.1928   -2.1479 C   0  0  0  0  0  0  0  0  0  0  0  0
   -3.1525   -0.9521   -1.4769 C   0  0  0  0  0  0  0  0  0  0  0  0
   -3.5020   -0.7838    0.0045 C   0  0  0  0  0  0  0  0  0  0  0  0
   -3.8762    0.6309    0.4466 C   0  0  0  0  0  0  0  0  0  0  0  0
   -2.6583    1.5114    0.7483 C   0  0  0  0  0  0  0  0  0  0  0  0
   -1.8783    1.9490   -0.4888 C   0  0  0  0  0  0  0  0  0  0  0  0
    0.1712   -0.9415   -1.6421 N   0  0  0  0  0  0  0  0  0  0  0  0
    1.3610   -1.2251   -1.0992 N   0  0  0  0  0  0  0  0  0  0  0  0
    3.6880    0.6831    1.0438 C   0  0  0  0  0  0  0  0  0  0  0  0
    4.8956    0.5898    1.7407 C   0  0  0  0  0  0  0  0  0  0  0  0
    6.3843   -0.7316    2.5622 H   0  0  0  0  0  0  0  0  0  0  0  0
    5.2122   -2.7898    1.8261 H   0  0  0  0  0  0  0  0  0  0  0  0
    3.0812   -2.6409    0.6121 H   0  0  0  0  0  0  0  0  0  0  0  0
    0.6964    1.4186    0.6041 H   0  0  0  0  0  0  0  0  0  0  0  0
   -3.1194    0.9483   -2.4770 H   0  0  0  0  0  0  0  0  0  0  0  0
   -1.9261   -0.1636   -3.0748 H   0  0  0  0  0  0  0  0  0  0  0  0
   -2.5782   -1.8812   -1.5831 H   0  0  0  0  0  0  0  0  0  0  0  0
   -4.0783   -1.1171   -2.0431 H   0  0  0  0  0  0  0  0  0  0  0  0
   -4.3435   -1.4536    0.2231 H   0  0  0  0  0  0  0  0  0  0  0  0
   -2.6682   -1.1496    0.6172 H   0  0  0  0  0  0  0  0  0  0  0  0
   -4.4555    0.5481    1.3750 H   0  0  0  0  0  0  0  0  0  0  0  0
   -4.5328    1.1099   -0.2887 H   0  0  0  0  0  0  0  0  0  0  0  0
   -3.0056    2.4138    1.2667 H   0  0  0  0  0  0  0  0  0  0  0  0
   -1.9935    0.9904    1.4481 H   0  0  0  0  0  0  0  0  0  0  0  0
   -1.0494    2.6026   -0.1933 H   0  0  0  0  0  0  0  0  0  0  0  0
   -2.5216    2.5825   -1.1132 H   0  0  0  0  0  0  0  0  0  0  0  0
    1.8653   -2.0279   -1.4555 H   0  0  0  0  0  0  0  0  0  0  0  0
    3.2818    1.6691    0.8304 H   0  0  0  0  0  0  0  0  0  0  0  0
    5.4054    1.4936    2.0645 H   0  0  0  0  0  0  0  0  0  0  0  0
  1  2  2  0
  2  3  1  0
  3  4  2  0
  4  5  1  0
  5  6  2  0
  6  7  1  0
  7  8  1  0
  8  9  1  0
  9 10  1  0
 10 11  1  0
 11 12  1  0
 12 13  1  0
 13 14  1  0
  7 15  2  0
 15 16  1  0
  4 17  1  0
 17 18  2  0
 18  1  1  0
 16  5  1  0
 14  8  1  0
  1 19  1  0
  2 20  1  0
  3 21  1  0
  6 22  1  0
  9 23  1  0
  9 24  1  0
 10 25  1  0
 10 26  1  0
 11 27  1  0
 11 28  1  0
 12 29  1  0
 12 30  1  0
 13 31  1  0
 13 32  1  0
 14 33  1  0
 14 34  1  0
 16 35  1  0
 17 36  1  0
 18 37  1  0
M  END
