
     RDKit          3D

 32 35  0  0  0  0  0  0  0  0999 V2000
   -6.2532    0.2570   -0.0763 C   0  0  0  0  0  0  0  0  0  0  0  0
   -5.5926   -0.8317   -0.6267 C   0  0  0  0  0  0  0  0  0  0  0  0
   -4.2022   -0.8946   -0.5534 C   0  0  0  0  0  0  0  0  0  0  0  0
   -3.4957    0.1361    0.0711 C   0  0  0  0  0  0  0  0  0  0  0  0
   -2.0156    0.1296    0.1742 C   0  0  0  0  0  0  0  0  0  0  0  0
   -1.3102    1.1577    0.7996 C   0  0  0  0  0  0  0  0  0  0  0  0
    0.0839    1.1025    0.8681 C   0  0  0  0  0  0  0  0  0  0  0  0
    0.7752    0.0229    0.3128 C   0  0  0  0  0  0  0  0  0  0  0  0
    2.2419   -0.0696    0.3622 C   0  0  0  0  0  0  0  0  0  0  0  0
    2.9279    0.0586    1.5875 C   0  0  0  0  0  0  0  0  0  0  0  0
    4.3254   -0.0201    1.6828 C   0  0  0  0  0  0  0  0  0  0  0  0
    5.0119   -0.2331    0.4899 C   0  0  0  0  0  0  0  0  0  0  0  0
    6.3357   -0.3629    0.1766 N   0  0  0  0  0  0  0  0  0  0  0  0
    6.5238   -0.5561   -1.1393 N   0  0  0  0  0  0  0  0  0  0  0  0
    5.3279   -0.5577   -1.7152 N   0  0  0  0  0  0  0  0  0  0  0  0
    4.3856   -0.3646   -0.7404 C   0  0  0  0  0  0  0  0  0  0  0  0
    2.9873   -0.2847   -0.8152 C   0  0  0  0  0  0  0  0  0  0  0  0
   -0.0090   -0.9580   -0.2914 C   0  0  0  0  0  0  0  0  0  0  0  0
   -1.3636   -0.9331   -0.3721 N   0  0  0  0  0  0  0  0  0  0  0  0
   -4.1438    1.2056    0.6152 N   0  0  0  0  0  0  0  0  0  0  0  0
   -5.4925    1.2405    0.5283 C   0  0  0  0  0  0  0  0  0  0  0  0
   -7.3333    0.3372   -0.1189 H   0  0  0  0  0  0  0  0  0  0  0  0
   -6.1495   -1.6285   -1.1113 H   0  0  0  0  0  0  0  0  0  0  0  0
   -3.6751   -1.7425   -0.9818 H   0  0  0  0  0  0  0  0  0  0  0  0
   -1.8371    2.0068    1.2259 H   0  0  0  0  0  0  0  0  0  0  0  0
    0.6201    1.9199    1.3439 H   0  0  0  0  0  0  0  0  0  0  0  0
    2.3603    0.2115    2.5064 H   0  0  0  0  0  0  0  0  0  0  0  0
    4.8325    0.0804    2.6357 H   0  0  0  0  0  0  0  0  0  0  0  0
    7.1444   -0.3318    0.7852 H   0  0  0  0  0  0  0  0  0  0  0  0
    2.5058   -0.3755   -1.7838 H   0  0  0  0  0  0  0  0  0  0  0  0
    0.4456   -1.8362   -0.7452 H   0  0  0  0  0  0  0  0  0  0  0  0
   -5.9618    2.1146    0.9719 H   0  0  0  0  0  0  0  0  0  0  0  0
  1  2  2  0
  2  3  1  0
  3  4  2  0
  4  5  1  0
  5  6  2  0
  6  7  1  0
  7  8  2  0
  8  9  1  0
  9 10  2  0
 10 11  1  0
 11 12  2  0
 12 13  1  0
 13 14  1  0
 14 15  2  0
 15 16  1  0
 16 17  2  0
  8 18  1  0
 18 19  2  0
  4 20  1  0
 20 21  2  0
 21  1  1  0
 19  5  1  0
 17  9  1  0
 16 12  1  0
  1 22  1  0
  2 23  1  0
  3 24  1  0
  6 25  1  0
  7 26  1  0
 10 27  1  0
 11 28  1  0
 13 29  1  0
 17 30  1  0
 18 31  1  0
 21 32  1  0
M  END
