
     RDKit          3D

 46 50  0  0  0  0  0  0  0  0999 V2000
    8.7088   -0.6242    0.4791 C   0  0  0  0  0  0  0  0  0  0  0  0
    7.9942   -1.7288    0.0343 C   0  0  0  0  0  0  0  0  0  0  0  0
    6.6018   -1.6731    0.0002 C   0  0  0  0  0  0  0  0  0  0  0  0
    5.9468   -0.5134    0.4144 C   0  0  0  0  0  0  0  0  0  0  0  0
    4.4668   -0.4054    0.4233 C   0  0  0  0  0  0  0  0  0  0  0  0
    3.8069    0.7769    0.7659 C   0  0  0  0  0  0  0  0  0  0  0  0
    2.4108    0.8138    0.7772 C   0  0  0  0  0  0  0  0  0  0  0  0
    1.6812   -0.3282    0.4559 C   0  0  0  0  0  0  0  0  0  0  0  0
    0.2204   -0.3404    0.4778 C   0  0  0  0  0  0  0  0  0  0  0  0
   -0.4732   -0.8491    1.5735 C   0  0  0  0  0  0  0  0  0  0  0  0
   -1.8708   -0.8676    1.5782 C   0  0  0  0  0  0  0  0  0  0  0  0
   -2.6272   -0.3761    0.4965 C   0  0  0  0  0  0  0  0  0  0  0  0
   -1.9357    0.1403   -0.6050 C   0  0  0  0  0  0  0  0  0  0  0  0
   -0.5229    0.1488   -0.6037 C   0  0  0  0  0  0  0  0  0  0  0  0
   -2.6502    0.6518   -1.8279 C   0  0  0  0  0  0  0  0  0  0  0  0
   -3.6809    1.7192   -1.4868 C   0  0  0  0  0  0  0  0  0  0  0  0
   -5.0016    1.1318   -1.0591 C   0  0  0  0  0  0  0  0  0  0  0  0
   -6.1719    1.6511   -1.6506 C   0  0  0  0  0  0  0  0  0  0  0  0
   -7.4335    1.1642   -1.3129 C   0  0  0  0  0  0  0  0  0  0  0  0
   -7.5464    0.1506   -0.3761 C   0  0  0  0  0  0  0  0  0  0  0  0
   -6.3967   -0.3556    0.2292 C   0  0  0  0  0  0  0  0  0  0  0  0
   -5.1092    0.1360   -0.0781 C   0  0  0  0  0  0  0  0  0  0  0  0
   -4.0271   -0.4583    0.5974 N   0  0  0  0  0  0  0  0  0  0  0  0
    2.4152   -1.4633    0.1231 C   0  0  0  0  0  0  0  0  0  0  0  0
    3.7695   -1.5282    0.0960 N   0  0  0  0  0  0  0  0  0  0  0  0
    6.6478    0.5756    0.8463 N   0  0  0  0  0  0  0  0  0  0  0  0
    7.9975    0.4946    0.8687 C   0  0  0  0  0  0  0  0  0  0  0  0
    9.7922   -0.6361    0.5210 H   0  0  0  0  0  0  0  0  0  0  0  0
    8.5107   -2.6348   -0.2785 H   0  0  0  0  0  0  0  0  0  0  0  0
    6.0320   -2.5292   -0.3477 H   0  0  0  0  0  0  0  0  0  0  0  0
    4.3720    1.6657    1.0298 H   0  0  0  0  0  0  0  0  0  0  0  0
    1.9014    1.7340    1.0489 H   0  0  0  0  0  0  0  0  0  0  0  0
    0.0675   -1.2350    2.4354 H   0  0  0  0  0  0  0  0  0  0  0  0
   -2.3711   -1.2770    2.4527 H   0  0  0  0  0  0  0  0  0  0  0  0
    0.0085    0.5403   -1.4681 H   0  0  0  0  0  0  0  0  0  0  0  0
   -1.9193    1.0989   -2.5100 H   0  0  0  0  0  0  0  0  0  0  0  0
   -3.0969   -0.1917   -2.3661 H   0  0  0  0  0  0  0  0  0  0  0  0
   -3.8353    2.3259   -2.3913 H   0  0  0  0  0  0  0  0  0  0  0  0
   -3.3187    2.4072   -0.7080 H   0  0  0  0  0  0  0  0  0  0  0  0
   -6.1020    2.4472   -2.3914 H   0  0  0  0  0  0  0  0  0  0  0  0
   -8.3207    1.5735   -1.7858 H   0  0  0  0  0  0  0  0  0  0  0  0
   -8.5231   -0.2463   -0.1123 H   0  0  0  0  0  0  0  0  0  0  0  0
   -6.5144   -1.1514    0.9563 H   0  0  0  0  0  0  0  0  0  0  0  0
   -4.3276   -0.9280    1.4461 H   0  0  0  0  0  0  0  0  0  0  0  0
    1.9150   -2.3910   -0.1410 H   0  0  0  0  0  0  0  0  0  0  0  0
    8.5090    1.3848    1.2232 H   0  0  0  0  0  0  0  0  0  0  0  0
  1  2  2  0
  2  3  1  0
  3  4  2  0
  4  5  1  0
  5  6  2  0
  6  7  1  0
  7  8  2  0
  8  9  1  0
  9 10  2  0
 10 11  1  0
 11 12  2  0
 12 13  1  0
 13 14  2  0
 13 15  1  0
 15 16  1  0
 16 17  1  0
 17 18  2  0
 18 19  1  0
 19 20  2  0
 20 21  1  0
 21 22  2  0
 22 23  1  0
  8 24  1  0
 24 25  2  0
  4 26  1  0
 26 27  2  0
 27  1  1  0
 25  5  1  0
 14  9  1  0
 22 17  1  0
 23 12  1  0
  1 28  1  0
  2 29  1  0
  3 30  1  0
  6 31  1  0
  7 32  1  0
 10 33  1  0
 11 34  1  0
 14 35  1  0
 15 36  1  0
 15 37  1  0
 16 38  1  0
 16 39  1  0
 18 40  1  0
 19 41  1  0
 20 42  1  0
 21 43  1  0
 23 44  1  0
 24 45  1  0
 27 46  1  0
M  END
