
     RDKit          3D

 41 45  0  0  0  0  0  0  0  0999 V2000
    8.0854    0.2718   -0.2155 C   0  0  0  0  0  0  0  0  0  0  0  0
    7.4748    1.2743    0.5238 C   0  0  0  0  0  0  0  0  0  0  0  0
    6.0944    1.2377    0.7133 C   0  0  0  0  0  0  0  0  0  0  0  0
    5.3475    0.1956    0.1582 C   0  0  0  0  0  0  0  0  0  0  0  0
    3.8762    0.1027    0.3258 C   0  0  0  0  0  0  0  0  0  0  0  0
    3.1299   -0.9402   -0.2240 C   0  0  0  0  0  0  0  0  0  0  0  0
    1.7463   -0.9787   -0.0349 C   0  0  0  0  0  0  0  0  0  0  0  0
    1.1071    0.0212    0.7019 C   0  0  0  0  0  0  0  0  0  0  0  0
   -0.3449    0.0162    0.9236 C   0  0  0  0  0  0  0  0  0  0  0  0
   -0.8805    0.1160    2.2139 C   0  0  0  0  0  0  0  0  0  0  0  0
   -2.2632    0.1207    2.4165 C   0  0  0  0  0  0  0  0  0  0  0  0
   -3.1463    0.0207    1.3338 C   0  0  0  0  0  0  0  0  0  0  0  0
   -2.6360   -0.1003    0.0327 C   0  0  0  0  0  0  0  0  0  0  0  0
   -1.2417   -0.0852   -0.1549 C   0  0  0  0  0  0  0  0  0  0  0  0
   -3.4705   -0.1578   -1.0979 N   0  0  0  0  0  0  0  0  0  0  0  0
   -4.8749   -0.2286   -1.1016 C   0  0  0  0  0  0  0  0  0  0  0  0
   -5.5446   -0.3313   -2.3320 C   0  0  0  0  0  0  0  0  0  0  0  0
   -6.9390   -0.3648   -2.3921 C   0  0  0  0  0  0  0  0  0  0  0  0
   -7.6851   -0.2818   -1.2217 C   0  0  0  0  0  0  0  0  0  0  0  0
   -7.0356   -0.1590    0.0066 C   0  0  0  0  0  0  0  0  0  0  0  0
   -5.6342   -0.1243    0.0761 C   0  0  0  0  0  0  0  0  0  0  0  0
   -4.8940    0.0477    1.6913 S   0  0  0  0  0  0  0  0  0  0  0  0
    1.9295    1.0234    1.2125 C   0  0  0  0  0  0  0  0  0  0  0  0
    3.2748    1.0880    1.0469 N   0  0  0  0  0  0  0  0  0  0  0  0
    5.9463   -0.7903   -0.5691 N   0  0  0  0  0  0  0  0  0  0  0  0
    7.2864   -0.7295   -0.7365 C   0  0  0  0  0  0  0  0  0  0  0  0
    9.1565    0.2703   -0.3815 H   0  0  0  0  0  0  0  0  0  0  0  0
    8.0629    2.0809    0.9520 H   0  0  0  0  0  0  0  0  0  0  0  0
    5.6067    2.0180    1.2906 H   0  0  0  0  0  0  0  0  0  0  0  0
    3.6183   -1.7250   -0.7949 H   0  0  0  0  0  0  0  0  0  0  0  0
    1.1793   -1.8047   -0.4577 H   0  0  0  0  0  0  0  0  0  0  0  0
   -0.2255    0.1831    3.0809 H   0  0  0  0  0  0  0  0  0  0  0  0
   -2.6463    0.2036    3.4315 H   0  0  0  0  0  0  0  0  0  0  0  0
   -0.8449   -0.1395   -1.1671 H   0  0  0  0  0  0  0  0  0  0  0  0
   -3.0207   -0.4351   -1.9603 H   0  0  0  0  0  0  0  0  0  0  0  0
   -4.9806   -0.3843   -3.2596 H   0  0  0  0  0  0  0  0  0  0  0  0
   -7.4403   -0.4501   -3.3528 H   0  0  0  0  0  0  0  0  0  0  0  0
   -8.7710   -0.3054   -1.2623 H   0  0  0  0  0  0  0  0  0  0  0  0
   -7.6318   -0.0863    0.9136 H   0  0  0  0  0  0  0  0  0  0  0  0
    1.5138    1.8477    1.7878 H   0  0  0  0  0  0  0  0  0  0  0  0
    7.7154   -1.5375   -1.3224 H   0  0  0  0  0  0  0  0  0  0  0  0
  1  2  2  0
  2  3  1  0
  3  4  2  0
  4  5  1  0
  5  6  2  0
  6  7  1  0
  7  8  2  0
  8  9  1  0
  9 10  2  0
 10 11  1  0
 11 12  2  0
 12 13  1  0
 13 14  2  0
 13 15  1  0
 15 16  1  0
 16 17  2  0
 17 18  1  0
 18 19  2  0
 19 20  1  0
 20 21  2  0
 21 22  1  0
  8 23  1  0
 23 24  2  0
  4 25  1  0
 25 26  2  0
 26  1  1  0
 24  5  1  0
 14  9  1  0
 21 16  1  0
 22 12  1  0
  1 27  1  0
  2 28  1  0
  3 29  1  0
  6 30  1  0
  7 31  1  0
 10 32  1  0
 11 33  1  0
 14 34  1  0
 15 35  1  0
 17 36  1  0
 18 37  1  0
 19 38  1  0
 20 39  1  0
 23 40  1  0
 26 41  1  0
M  END
