
     RDKit          3D

 39 43  0  0  0  0  0  0  0  0999 V2000
    6.4300    1.3390    0.7470 C   0  0  0  0  0  0  0  0  0  0  0  0
    5.4496    2.0438    1.4334 C   0  0  0  0  0  0  0  0  0  0  0  0
    4.1108    1.8582    1.0933 C   0  0  0  0  0  0  0  0  0  0  0  0
    3.7739    0.9643    0.0742 C   0  0  0  0  0  0  0  0  0  0  0  0
    2.3675    0.7194   -0.3292 C   0  0  0  0  0  0  0  0  0  0  0  0
    2.0221   -0.2470   -1.2778 C   0  0  0  0  0  0  0  0  0  0  0  0
    0.6812   -0.4430   -1.6115 C   0  0  0  0  0  0  0  0  0  0  0  0
   -0.3079    0.3323   -1.0054 C   0  0  0  0  0  0  0  0  0  0  0  0
   -1.7197    0.1814   -1.3449 C   0  0  0  0  0  0  0  0  0  0  0  0
   -2.2189    0.6840   -2.5656 C   0  0  0  0  0  0  0  0  0  0  0  0
   -3.5680    0.5852   -2.8924 C   0  0  0  0  0  0  0  0  0  0  0  0
   -4.4701   -0.0195   -2.0140 C   0  0  0  0  0  0  0  0  0  0  0  0
   -3.9700   -0.5294   -0.8090 C   0  0  0  0  0  0  0  0  0  0  0  0
   -4.6394   -1.1613    0.2136 N   0  0  0  0  0  0  0  0  0  0  0  0
   -3.7789   -1.5167    1.2202 C   0  0  0  0  0  0  0  0  0  0  0  0
   -4.0269   -2.1649    2.4230 C   0  0  0  0  0  0  0  0  0  0  0  0
   -2.9985   -2.4145    3.2630 N   0  0  0  0  0  0  0  0  0  0  0  0
   -1.7553   -2.0293    2.9012 C   0  0  0  0  0  0  0  0  0  0  0  0
   -1.4400   -1.3780    1.7135 C   0  0  0  0  0  0  0  0  0  0  0  0
   -2.5024   -1.1016    0.8370 C   0  0  0  0  0  0  0  0  0  0  0  0
   -2.6207   -0.4564   -0.4465 C   0  0  0  0  0  0  0  0  0  0  0  0
    0.1228    1.2751   -0.0777 C   0  0  0  0  0  0  0  0  0  0  0  0
    1.4143    1.4749    0.2838 N   0  0  0  0  0  0  0  0  0  0  0  0
    4.7348    0.2651   -0.5952 N   0  0  0  0  0  0  0  0  0  0  0  0
    6.0269    0.4710   -0.2522 C   0  0  0  0  0  0  0  0  0  0  0  0
    7.4822    1.4643    0.9784 H   0  0  0  0  0  0  0  0  0  0  0  0
    5.7183    2.7450    2.2174 H   0  0  0  0  0  0  0  0  0  0  0  0
    3.3382    2.4163    1.6159 H   0  0  0  0  0  0  0  0  0  0  0  0
    2.7882   -0.8467   -1.7588 H   0  0  0  0  0  0  0  0  0  0  0  0
    0.4144   -1.2049   -2.3416 H   0  0  0  0  0  0  0  0  0  0  0  0
   -1.5419    1.1695   -3.2649 H   0  0  0  0  0  0  0  0  0  0  0  0
   -3.9239    0.9902   -3.8371 H   0  0  0  0  0  0  0  0  0  0  0  0
   -5.5241   -0.0908   -2.2652 H   0  0  0  0  0  0  0  0  0  0  0  0
   -5.6326   -1.3359    0.2139 H   0  0  0  0  0  0  0  0  0  0  0  0
   -5.0105   -2.4933    2.7407 H   0  0  0  0  0  0  0  0  0  0  0  0
   -0.9764   -2.2666    3.6225 H   0  0  0  0  0  0  0  0  0  0  0  0
   -0.4141   -1.1076    1.4932 H   0  0  0  0  0  0  0  0  0  0  0  0
   -0.5900    1.9240    0.4287 H   0  0  0  0  0  0  0  0  0  0  0  0
    6.7550   -0.0956   -0.8252 H   0  0  0  0  0  0  0  0  0  0  0  0
  1  2  2  0
  2  3  1  0
  3  4  2  0
  4  5  1  0
  5  6  2  0
  6  7  1  0
  7  8  2  0
  8  9  1  0
  9 10  2  0
 10 11  1  0
 11 12  2  0
 12 13  1  0
 13 14  1  0
 14 15  1  0
 15 16  2  0
 16 17  1  0
 17 18  2  0
 18 19  1  0
 19 20  2  0
 20 21  1  0
  8 22  1  0
 22 23  2  0
  4 24  1  0
 24 25  2  0
 25  1  1  0
 23  5  1  0
 21  9  1  0
 21 13  2  0
 20 15  1  0
  1 26  1  0
  2 27  1  0
  3 28  1  0
  6 29  1  0
  7 30  1  0
 10 31  1  0
 11 32  1  0
 12 33  1  0
 14 34  1  0
 16 35  1  0
 18 36  1  0
 19 37  1  0
 22 38  1  0
 25 39  1  0
M  END
