
     RDKit          3D

 38 42  0  0  0  0  0  0  0  0999 V2000
    6.8312    0.9810    0.9043 C   0  0  0  0  0  0  0  0  0  0  0  0
    6.3388   -0.2390    1.3446 C   0  0  0  0  0  0  0  0  0  0  0  0
    5.0239   -0.5917    1.0460 C   0  0  0  0  0  0  0  0  0  0  0  0
    4.2234    0.2851    0.3099 C   0  0  0  0  0  0  0  0  0  0  0  0
    2.8171   -0.0333   -0.0391 C   0  0  0  0  0  0  0  0  0  0  0  0
    2.0311    0.8230   -0.8117 C   0  0  0  0  0  0  0  0  0  0  0  0
    0.7118    0.4748   -1.1079 C   0  0  0  0  0  0  0  0  0  0  0  0
    0.1793   -0.7251   -0.6322 C   0  0  0  0  0  0  0  0  0  0  0  0
   -1.1944   -1.1212   -0.9123 C   0  0  0  0  0  0  0  0  0  0  0  0
   -1.5342   -2.2562   -1.6498 C   0  0  0  0  0  0  0  0  0  0  0  0
   -2.7929   -2.6641   -1.9343 N   0  0  0  0  0  0  0  0  0  0  0  0
   -3.8354   -1.9281   -1.4809 C   0  0  0  0  0  0  0  0  0  0  0  0
   -3.6162   -0.7699   -0.7244 C   0  0  0  0  0  0  0  0  0  0  0  0
   -2.3001   -0.3895   -0.4529 C   0  0  0  0  0  0  0  0  0  0  0  0
   -2.3653    0.7537    0.3146 N   0  0  0  0  0  0  0  0  0  0  0  0
   -3.6687    1.1310    0.5270 C   0  0  0  0  0  0  0  0  0  0  0  0
   -4.1956    2.2123    1.2298 C   0  0  0  0  0  0  0  0  0  0  0  0
   -5.5802    2.2834    1.2417 C   0  0  0  0  0  0  0  0  0  0  0  0
   -6.4062    1.4014    0.6375 N   0  0  0  0  0  0  0  0  0  0  0  0
   -5.8683    0.3563   -0.0388 C   0  0  0  0  0  0  0  0  0  0  0  0
   -4.4787    0.1939   -0.1127 C   0  0  0  0  0  0  0  0  0  0  0  0
    1.0324   -1.5223    0.1255 C   0  0  0  0  0  0  0  0  0  0  0  0
    2.3157   -1.2088    0.4306 N   0  0  0  0  0  0  0  0  0  0  0  0
    4.7050    1.4851   -0.1224 N   0  0  0  0  0  0  0  0  0  0  0  0
    5.9842    1.8008    0.1811 C   0  0  0  0  0  0  0  0  0  0  0  0
    7.8494    1.2853    1.1187 H   0  0  0  0  0  0  0  0  0  0  0  0
    6.9688   -0.9149    1.9157 H   0  0  0  0  0  0  0  0  0  0  0  0
    4.6295   -1.5452    1.3856 H   0  0  0  0  0  0  0  0  0  0  0  0
    2.4419    1.7554   -1.1896 H   0  0  0  0  0  0  0  0  0  0  0  0
    0.1134    1.1420   -1.7248 H   0  0  0  0  0  0  0  0  0  0  0  0
   -0.7585   -2.8992   -2.0621 H   0  0  0  0  0  0  0  0  0  0  0  0
   -4.8251   -2.2912   -1.7348 H   0  0  0  0  0  0  0  0  0  0  0  0
   -1.5588    1.2446    0.6753 H   0  0  0  0  0  0  0  0  0  0  0  0
   -3.5795    2.9462    1.7326 H   0  0  0  0  0  0  0  0  0  0  0  0
   -6.0845    3.0925    1.7646 H   0  0  0  0  0  0  0  0  0  0  0  0
   -6.5709   -0.3249   -0.5052 H   0  0  0  0  0  0  0  0  0  0  0  0
    0.6952   -2.4714    0.5372 H   0  0  0  0  0  0  0  0  0  0  0  0
    6.3216    2.7658   -0.1866 H   0  0  0  0  0  0  0  0  0  0  0  0
  1  2  2  0
  2  3  1  0
  3  4  2  0
  4  5  1  0
  5  6  2  0
  6  7  1  0
  7  8  2  0
  8  9  1  0
  9 10  2  0
 10 11  1  0
 11 12  2  0
 12 13  1  0
 13 14  2  0
 14 15  1  0
 15 16  1  0
 16 17  2  0
 17 18  1  0
 18 19  2  0
 19 20  1  0
 20 21  2  0
  8 22  1  0
 22 23  2  0
  4 24  1  0
 24 25  2  0
 25  1  1  0
 23  5  1  0
 14  9  1  0
 21 16  1  0
 21 13  1  0
  1 26  1  0
  2 27  1  0
  3 28  1  0
  6 29  1  0
  7 30  1  0
 10 31  1  0
 12 32  1  0
 15 33  1  0
 17 34  1  0
 18 35  1  0
 20 36  1  0
 22 37  1  0
 25 38  1  0
M  END
