
     RDKit          3D

 34 38  0  0  0  0  0  0  0  0999 V2000
    7.0698   -0.8540   -0.2630 C   0  0  0  0  0  0  0  0  0  0  0  0
    6.6030    0.4509   -0.2335 C   0  0  0  0  0  0  0  0  0  0  0  0
    5.2281    0.6885   -0.1721 C   0  0  0  0  0  0  0  0  0  0  0  0
    4.3351   -0.3876   -0.1409 C   0  0  0  0  0  0  0  0  0  0  0  0
    2.8510   -0.2309   -0.0753 C   0  0  0  0  0  0  0  0  0  0  0  0
    2.2016    1.0058   -0.0384 C   0  0  0  0  0  0  0  0  0  0  0  0
    0.8034    1.0625    0.0228 C   0  0  0  0  0  0  0  0  0  0  0  0
    0.0535   -0.1128    0.0472 C   0  0  0  0  0  0  0  0  0  0  0  0
   -1.3989   -0.1310    0.1102 C   0  0  0  0  0  0  0  0  0  0  0  0
   -2.2172   -1.1693    0.1385 N   0  0  0  0  0  0  0  0  0  0  0  0
   -3.4646   -0.6057    0.1966 C   0  0  0  0  0  0  0  0  0  0  0  0
   -4.7397   -1.1744    0.2481 C   0  0  0  0  0  0  0  0  0  0  0  0
   -5.8238   -0.3090    0.3013 C   0  0  0  0  0  0  0  0  0  0  0  0
   -7.1499   -0.6216    0.3567 O   0  0  0  0  0  0  0  0  0  0  0  0
   -7.7628    0.5969    0.3919 C   0  0  0  0  0  0  0  0  0  0  0  0
   -6.9598    1.6399    0.3643 N   0  0  0  0  0  0  0  0  0  0  0  0
   -5.7120    1.0759    0.3061 C   0  0  0  0  0  0  0  0  0  0  0  0
   -4.4363    1.6435    0.2546 C   0  0  0  0  0  0  0  0  0  0  0  0
   -3.3528    0.7774    0.2015 C   0  0  0  0  0  0  0  0  0  0  0  0
   -2.0282    1.0910    0.1461 O   0  0  0  0  0  0  0  0  0  0  0  0
    0.7680   -1.2997    0.0078 C   0  0  0  0  0  0  0  0  0  0  0  0
    2.1210   -1.3796   -0.0515 N   0  0  0  0  0  0  0  0  0  0  0  0
    4.8051   -1.6658   -0.1703 N   0  0  0  0  0  0  0  0  0  0  0  0
    6.1379   -1.8717   -0.2297 C   0  0  0  0  0  0  0  0  0  0  0  0
    8.1300   -1.0734   -0.3106 H   0  0  0  0  0  0  0  0  0  0  0  0
    7.3014    1.2827   -0.2580 H   0  0  0  0  0  0  0  0  0  0  0  0
    4.8880    1.7165   -0.1500 H   0  0  0  0  0  0  0  0  0  0  0  0
    2.7495    1.9405   -0.0557 H   0  0  0  0  0  0  0  0  0  0  0  0
    0.3150    2.0339    0.0508 H   0  0  0  0  0  0  0  0  0  0  0  0
   -4.8747   -2.2496    0.2464 H   0  0  0  0  0  0  0  0  0  0  0  0
   -8.8430    0.5899    0.4388 H   0  0  0  0  0  0  0  0  0  0  0  0
   -4.3021    2.7186    0.2563 H   0  0  0  0  0  0  0  0  0  0  0  0
    0.2636   -2.2638    0.0230 H   0  0  0  0  0  0  0  0  0  0  0  0
    6.4411   -2.9144   -0.2502 H   0  0  0  0  0  0  0  0  0  0  0  0
  1  2  2  0
  2  3  1  0
  3  4  2  0
  4  5  1  0
  5  6  2  0
  6  7  1  0
  7  8  2  0
  8  9  1  0
  9 10  2  0
 10 11  1  0
 11 12  2  0
 12 13  1  0
 13 14  1  0
 14 15  1  0
 15 16  2  0
 16 17  1  0
 17 18  1  0
 18 19  2  0
 19 20  1  0
  8 21  1  0
 21 22  2  0
  4 23  1  0
 23 24  2  0
 24  1  1  0
 22  5  1  0
 20  9  1  0
 19 11  1  0
 17 13  2  0
  1 25  1  0
  2 26  1  0
  3 27  1  0
  6 28  1  0
  7 29  1  0
 12 30  1  0
 15 31  1  0
 18 32  1  0
 21 33  1  0
 24 34  1  0
M  END
