
     RDKit          3D

 34 38  0  0  0  0  0  0  0  0999 V2000
   -7.1870    0.1955    0.4116 C   0  0  0  0  0  0  0  0  0  0  0  0
   -6.7216   -0.2949   -0.7985 C   0  0  0  0  0  0  0  0  0  0  0  0
   -5.3457   -0.3929   -1.0178 C   0  0  0  0  0  0  0  0  0  0  0  0
   -4.4503    0.0028   -0.0187 C   0  0  0  0  0  0  0  0  0  0  0  0
   -2.9653   -0.0658   -0.1630 C   0  0  0  0  0  0  0  0  0  0  0  0
   -2.3163   -0.5313   -1.3082 C   0  0  0  0  0  0  0  0  0  0  0  0
   -0.9152   -0.5627   -1.3616 C   0  0  0  0  0  0  0  0  0  0  0  0
   -0.1541   -0.1304   -0.2738 C   0  0  0  0  0  0  0  0  0  0  0  0
    1.3166   -0.1219   -0.2268 C   0  0  0  0  0  0  0  0  0  0  0  0
    2.0112    0.2926    0.8154 N   0  0  0  0  0  0  0  0  0  0  0  0
    3.3688    0.1868    0.5765 C   0  0  0  0  0  0  0  0  0  0  0  0
    4.3948    0.5364    1.4633 C   0  0  0  0  0  0  0  0  0  0  0  0
    5.7301    0.3779    1.0930 C   0  0  0  0  0  0  0  0  0  0  0  0
    7.1665    0.7233    1.9768 S   0  0  0  0  0  0  0  0  0  0  0  0
    8.1007    0.1819    0.6481 C   0  0  0  0  0  0  0  0  0  0  0  0
    7.4338   -0.2366   -0.4035 N   0  0  0  0  0  0  0  0  0  0  0  0
    6.0752   -0.1291   -0.1604 C   0  0  0  0  0  0  0  0  0  0  0  0
    5.0471   -0.4780   -1.0456 C   0  0  0  0  0  0  0  0  0  0  0  0
    3.7125   -0.3188   -0.6736 C   0  0  0  0  0  0  0  0  0  0  0  0
    2.2782   -0.6619   -1.5513 S   0  0  0  0  0  0  0  0  0  0  0  0
   -0.8774    0.3171    0.8252 C   0  0  0  0  0  0  0  0  0  0  0  0
   -2.2324    0.3571    0.9006 N   0  0  0  0  0  0  0  0  0  0  0  0
   -4.9191    0.4832    1.1666 N   0  0  0  0  0  0  0  0  0  0  0  0
   -6.2528    0.5691    1.3565 C   0  0  0  0  0  0  0  0  0  0  0  0
   -8.2479    0.2846    0.6143 H   0  0  0  0  0  0  0  0  0  0  0  0
   -7.4219   -0.6007   -1.5708 H   0  0  0  0  0  0  0  0  0  0  0  0
   -5.0069   -0.7790   -1.9712 H   0  0  0  0  0  0  0  0  0  0  0  0
   -2.8666   -0.8764   -2.1756 H   0  0  0  0  0  0  0  0  0  0  0  0
   -0.4489   -0.9320   -2.2710 H   0  0  0  0  0  0  0  0  0  0  0  0
    4.1348    0.9319    2.4412 H   0  0  0  0  0  0  0  0  0  0  0  0
    9.1825    0.1869    0.6797 H   0  0  0  0  0  0  0  0  0  0  0  0
    5.3068   -0.8735   -2.0235 H   0  0  0  0  0  0  0  0  0  0  0  0
   -0.3755    0.6746    1.7225 H   0  0  0  0  0  0  0  0  0  0  0  0
   -6.5547    0.9604    2.3236 H   0  0  0  0  0  0  0  0  0  0  0  0
  1  2  2  0
  2  3  1  0
  3  4  2  0
  4  5  1  0
  5  6  2  0
  6  7  1  0
  7  8  2  0
  8  9  1  0
  9 10  2  0
 10 11  1  0
 11 12  2  0
 12 13  1  0
 13 14  1  0
 14 15  1  0
 15 16  2  0
 16 17  1  0
 17 18  1  0
 18 19  2  0
 19 20  1  0
  8 21  1  0
 21 22  2  0
  4 23  1  0
 23 24  2  0
 24  1  1  0
 22  5  1  0
 20  9  1  0
 19 11  1  0
 17 13  2  0
  1 25  1  0
  2 26  1  0
  3 27  1  0
  6 28  1  0
  7 29  1  0
 12 30  1  0
 15 31  1  0
 18 32  1  0
 21 33  1  0
 24 34  1  0
M  END
