
     RDKit          3D

 81 90  0  0  0  0  0  0  0  0999 V2000
    0.3674   -7.8500   -0.9981 C   0  0  0  0  0  0  0  0  0  0  0  0
   -0.8675   -7.2123   -0.9419 C   0  0  0  0  0  0  0  0  0  0  0  0
   -0.9327   -5.8226   -0.7940 C   0  0  0  0  0  0  0  0  0  0  0  0
    0.2315   -5.0347   -0.6982 C   0  0  0  0  0  0  0  0  0  0  0  0
    0.1614   -3.5660   -0.5406 C   0  0  0  0  0  0  0  0  0  0  0  0
    1.3108   -2.8996   -0.4213 N   0  0  0  0  0  0  0  0  0  0  0  0
    1.1966   -1.5797   -0.2785 C   0  0  0  0  0  0  0  0  0  0  0  0
    2.4382   -0.7890   -0.1412 C   0  0  0  0  0  0  0  0  0  0  0  0
    2.4140    0.6200   -0.1336 C   0  0  0  0  0  0  0  0  0  0  0  0
    3.5855    1.3730    0.0038 C   0  0  0  0  0  0  0  0  0  0  0  0
    4.8238    0.7373    0.1408 C   0  0  0  0  0  0  0  0  0  0  0  0
    6.0175    1.5037    0.2940 N   0  0  0  0  0  0  0  0  0  0  0  0
    6.9002    1.7380   -0.8118 C   0  0  0  0  0  0  0  0  0  0  0  0
    6.6589    1.2379   -2.1034 C   0  0  0  0  0  0  0  0  0  0  0  0
    7.5471    1.4926   -3.1544 C   0  0  0  0  0  0  0  0  0  0  0  0
    8.6907    2.2552   -2.9350 C   0  0  0  0  0  0  0  0  0  0  0  0
    8.9448    2.7673   -1.6654 C   0  0  0  0  0  0  0  0  0  0  0  0
    8.0557    2.5125   -0.6161 C   0  0  0  0  0  0  0  0  0  0  0  0
    8.3887    3.0740    0.5953 O   0  0  0  0  0  0  0  0  0  0  0  0
    7.5397    2.8556    1.6564 C   0  0  0  0  0  0  0  0  0  0  0  0
    7.9173    3.4475    2.8665 C   0  0  0  0  0  0  0  0  0  0  0  0
    7.1314    3.2765    4.0035 C   0  0  0  0  0  0  0  0  0  0  0  0
    5.9714    2.5110    3.9299 C   0  0  0  0  0  0  0  0  0  0  0  0
    5.5940    1.9212    2.7182 C   0  0  0  0  0  0  0  0  0  0  0  0
    6.3677    2.0886    1.5559 C   0  0  0  0  0  0  0  0  0  0  0  0
    4.8709   -0.6606    0.1322 C   0  0  0  0  0  0  0  0  0  0  0  0
    3.6960   -1.4090   -0.0085 C   0  0  0  0  0  0  0  0  0  0  0  0
    0.0383   -0.9219   -0.2445 N   0  0  0  0  0  0  0  0  0  0  0  0
   -1.0545   -1.6747   -0.3692 C   0  0  0  0  0  0  0  0  0  0  0  0
   -2.3644   -0.9902   -0.3302 C   0  0  0  0  0  0  0  0  0  0  0  0
   -2.4673    0.3769   -0.0039 C   0  0  0  0  0  0  0  0  0  0  0  0
   -3.7038    1.0310    0.0314 C   0  0  0  0  0  0  0  0  0  0  0  0
   -4.8819    0.3363   -0.2624 C   0  0  0  0  0  0  0  0  0  0  0  0
   -6.1416    1.0063   -0.2361 N   0  0  0  0  0  0  0  0  0  0  0  0
   -7.0203    0.8968    0.8921 C   0  0  0  0  0  0  0  0  0  0  0  0
   -6.7196    0.1196    2.0248 C   0  0  0  0  0  0  0  0  0  0  0  0
   -7.6060    0.0439    3.1050 C   0  0  0  0  0  0  0  0  0  0  0  0
   -8.8071    0.7469    3.0758 C   0  0  0  0  0  0  0  0  0  0  0  0
   -9.1214    1.5292    1.9675 C   0  0  0  0  0  0  0  0  0  0  0  0
   -8.2344    1.6038    0.8880 C   0  0  0  0  0  0  0  0  0  0  0  0
   -8.6295    2.4141   -0.1520 O   0  0  0  0  0  0  0  0  0  0  0  0
   -7.7842    2.5267   -1.2316 C   0  0  0  0  0  0  0  0  0  0  0  0
   -8.2263    3.3629   -2.2622 C   0  0  0  0  0  0  0  0  0  0  0  0
   -7.4485    3.5339   -3.4046 C   0  0  0  0  0  0  0  0  0  0  0  0
   -6.2329    2.8653   -3.5175 C   0  0  0  0  0  0  0  0  0  0  0  0
   -5.7921    2.0291   -2.4859 C   0  0  0  0  0  0  0  0  0  0  0  0
   -6.5563    1.8508   -1.3188 C   0  0  0  0  0  0  0  0  0  0  0  0
   -4.8029   -1.0221   -0.5867 C   0  0  0  0  0  0  0  0  0  0  0  0
   -3.5632   -1.6725   -0.6178 C   0  0  0  0  0  0  0  0  0  0  0  0
   -1.0458   -2.9985   -0.5237 N   0  0  0  0  0  0  0  0  0  0  0  0
    1.4665   -5.7108   -0.7589 C   0  0  0  0  0  0  0  0  0  0  0  0
    1.5354   -7.1002   -0.9068 C   0  0  0  0  0  0  0  0  0  0  0  0
    0.4196   -8.9296   -1.1126 H   0  0  0  0  0  0  0  0  0  0  0  0
   -1.7836   -7.7932   -1.0123 H   0  0  0  0  0  0  0  0  0  0  0  0
   -1.9144   -5.3535   -0.7524 H   0  0  0  0  0  0  0  0  0  0  0  0
    1.4692    1.1512   -0.2378 H   0  0  0  0  0  0  0  0  0  0  0  0
    3.5326    2.4591    0.0039 H   0  0  0  0  0  0  0  0  0  0  0  0
    5.7729    0.6462   -2.3166 H   0  0  0  0  0  0  0  0  0  0  0  0
    7.3402    1.0944   -4.1446 H   0  0  0  0  0  0  0  0  0  0  0  0
    9.3798    2.4545   -3.7515 H   0  0  0  0  0  0  0  0  0  0  0  0
    9.8324    3.3688   -1.4890 H   0  0  0  0  0  0  0  0  0  0  0  0
    8.8274    4.0384    2.9195 H   0  0  0  0  0  0  0  0  0  0  0  0
    7.4248    3.7359    4.9439 H   0  0  0  0  0  0  0  0  0  0  0  0
    5.3554    2.3695    4.8146 H   0  0  0  0  0  0  0  0  0  0  0  0
    4.6864    1.3240    2.7033 H   0  0  0  0  0  0  0  0  0  0  0  0
    5.8253   -1.1700    0.2416 H   0  0  0  0  0  0  0  0  0  0  0  0
    3.7720   -2.4953   -0.0064 H   0  0  0  0  0  0  0  0  0  0  0  0
   -1.5733    0.9527    0.2314 H   0  0  0  0  0  0  0  0  0  0  0  0
   -3.7483    2.0864    0.2899 H   0  0  0  0  0  0  0  0  0  0  0  0
   -5.7891   -0.4377    2.0897 H   0  0  0  0  0  0  0  0  0  0  0  0
   -7.3526   -0.5647    3.9699 H   0  0  0  0  0  0  0  0  0  0  0  0
   -9.4949    0.6890    3.9155 H   0  0  0  0  0  0  0  0  0  0  0  0
  -10.0546    2.0852    1.9415 H   0  0  0  0  0  0  0  0  0  0  0  0
   -9.1787    3.8777   -2.1706 H   0  0  0  0  0  0  0  0  0  0  0  0
   -7.7919    4.1832   -4.2057 H   0  0  0  0  0  0  0  0  0  0  0  0
   -5.6239    2.9898   -4.4096 H   0  0  0  0  0  0  0  0  0  0  0  0
   -4.8420    1.5177   -2.6144 H   0  0  0  0  0  0  0  0  0  0  0  0
   -5.7089   -1.5759   -0.8216 H   0  0  0  0  0  0  0  0  0  0  0  0
   -3.5413   -2.7296   -0.8781 H   0  0  0  0  0  0  0  0  0  0  0  0
    2.3989   -5.1523   -0.6919 H   0  0  0  0  0  0  0  0  0  0  0  0
    2.5032   -7.5929   -0.9501 H   0  0  0  0  0  0  0  0  0  0  0  0
  1  2  2  0
  2  3  1  0
  3  4  2  0
  4  5  1  0
  5  6  2  0
  6  7  1  0
  7  8  1  0
  8  9  2  0
  9 10  1  0
 10 11  2  0
 11 12  1  0
 12 13  1  0
 13 14  2  0
 14 15  1  0
 15 16  2  0
 16 17  1  0
 17 18  2  0
 18 19  1  0
 19 20  1  0
 20 21  2  0
 21 22  1  0
 22 23  2  0
 23 24  1  0
 24 25  2  0
 11 26  1  0
 26 27  2  0
  7 28  2  0
 28 29  1  0
 29 30  1  0
 30 31  2  0
 31 32  1  0
 32 33  2  0
 33 34  1  0
 34 35  1  0
 35 36  2  0
 36 37  1  0
 37 38  2  0
 38 39  1  0
 39 40  2  0
 40 41  1  0
 41 42  1  0
 42 43  2  0
 43 44  1  0
 44 45  2  0
 45 46  1  0
 46 47  2  0
 33 48  1  0
 48 49  2  0
 29 50  2  0
  4 51  1  0
 51 52  2  0
 52  1  1  0
 50  5  1  0
 27  8  1  0
 49 30  1  0
 25 12  1  0
 47 34  1  0
 18 13  1  0
 25 20  1  0
 40 35  1  0
 47 42  1  0
  1 53  1  0
  2 54  1  0
  3 55  1  0
  9 56  1  0
 10 57  1  0
 14 58  1  0
 15 59  1  0
 16 60  1  0
 17 61  1  0
 21 62  1  0
 22 63  1  0
 23 64  1  0
 24 65  1  0
 26 66  1  0
 27 67  1  0
 31 68  1  0
 32 69  1  0
 36 70  1  0
 37 71  1  0
 38 72  1  0
 39 73  1  0
 43 74  1  0
 44 75  1  0
 45 76  1  0
 46 77  1  0
 48 78  1  0
 49 79  1  0
 51 80  1  0
 52 81  1  0
M  END
