
     RDKit          3D

 98108  0  0  0  0  0  0  0  0999 V2000
  -10.8786    5.5275    0.2843 C   0  0  0  0  0  0  0  0  0  0  0  0
   -9.4955    5.4140    0.1858 C   0  0  0  0  0  0  0  0  0  0  0  0
   -8.8989    4.1497    0.1337 C   0  0  0  0  0  0  0  0  0  0  0  0
   -9.6661    2.9688    0.1812 C   0  0  0  0  0  0  0  0  0  0  0  0
   -9.0341    1.6335    0.1251 C   0  0  0  0  0  0  0  0  0  0  0  0
   -9.8339    0.5679    0.0782 N   0  0  0  0  0  0  0  0  0  0  0  0
   -9.2169   -0.6129    0.0209 C   0  0  0  0  0  0  0  0  0  0  0  0
  -10.0598   -1.8270   -0.0232 C   0  0  0  0  0  0  0  0  0  0  0  0
   -9.4955   -3.1176    0.0071 C   0  0  0  0  0  0  0  0  0  0  0  0
  -10.2919   -4.2673   -0.0338 C   0  0  0  0  0  0  0  0  0  0  0  0
  -11.6765   -4.1537   -0.1057 C   0  0  0  0  0  0  0  0  0  0  0  0
  -12.2648   -2.8936   -0.1370 C   0  0  0  0  0  0  0  0  0  0  0  0
  -11.4650   -1.7464   -0.0957 C   0  0  0  0  0  0  0  0  0  0  0  0
   -7.8927   -0.7727    0.0059 N   0  0  0  0  0  0  0  0  0  0  0  0
   -7.1797    0.3525    0.0619 C   0  0  0  0  0  0  0  0  0  0  0  0
   -5.7058    0.2387    0.0531 C   0  0  0  0  0  0  0  0  0  0  0  0
   -4.8836    1.3502    0.3274 C   0  0  0  0  0  0  0  0  0  0  0  0
   -3.4880    1.2485    0.3194 C   0  0  0  0  0  0  0  0  0  0  0  0
   -2.8688    0.0278    0.0294 C   0  0  0  0  0  0  0  0  0  0  0  0
   -1.4415   -0.0741    0.0147 N   0  0  0  0  0  0  0  0  0  0  0  0
   -0.7340   -0.5409    1.1831 C   0  0  0  0  0  0  0  0  0  0  0  0
   -1.4265   -0.9399    2.3490 C   0  0  0  0  0  0  0  0  0  0  0  0
   -0.7535   -1.4123    3.4760 C   0  0  0  0  0  0  0  0  0  0  0  0
    0.6295   -1.4945    3.4662 C   0  0  0  0  0  0  0  0  0  0  0  0
    1.3377   -1.0957    2.3324 C   0  0  0  0  0  0  0  0  0  0  0  0
    0.6809   -0.6058    1.1804 C   0  0  0  0  0  0  0  0  0  0  0  0
    1.4258   -0.1810    0.0194 N   0  0  0  0  0  0  0  0  0  0  0  0
    2.8563   -0.2191    0.0288 C   0  0  0  0  0  0  0  0  0  0  0  0
    3.5413   -1.2973   -0.5416 C   0  0  0  0  0  0  0  0  0  0  0  0
    4.9403   -1.3327   -0.5299 C   0  0  0  0  0  0  0  0  0  0  0  0
    5.7009   -0.2996    0.0540 C   0  0  0  0  0  0  0  0  0  0  0  0
    7.1788   -0.3446    0.0675 C   0  0  0  0  0  0  0  0  0  0  0  0
    7.7757   -1.2871   -0.6625 N   0  0  0  0  0  0  0  0  0  0  0  0
    9.1082   -1.2897   -0.6165 C   0  0  0  0  0  0  0  0  0  0  0  0
    9.8225   -2.3062   -1.4173 C   0  0  0  0  0  0  0  0  0  0  0  0
    9.1354   -3.1652   -2.2983 C   0  0  0  0  0  0  0  0  0  0  0  0
    9.8099   -4.1270   -3.0591 C   0  0  0  0  0  0  0  0  0  0  0  0
   11.1915   -4.2549   -2.9561 C   0  0  0  0  0  0  0  0  0  0  0  0
   11.8977   -3.4215   -2.0945 C   0  0  0  0  0  0  0  0  0  0  0  0
   11.2210   -2.4589   -1.3369 C   0  0  0  0  0  0  0  0  0  0  0  0
    9.8400   -0.4372    0.1010 N   0  0  0  0  0  0  0  0  0  0  0  0
    9.1521    0.4706    0.7948 C   0  0  0  0  0  0  0  0  0  0  0  0
    9.9192    1.4407    1.6061 C   0  0  0  0  0  0  0  0  0  0  0  0
   11.3288    1.4489    1.6058 C   0  0  0  0  0  0  0  0  0  0  0  0
   12.0572    2.3638    2.3732 C   0  0  0  0  0  0  0  0  0  0  0  0
   11.3914    3.2966    3.1618 C   0  0  0  0  0  0  0  0  0  0  0  0
   10.0001    3.3150    3.1840 C   0  0  0  0  0  0  0  0  0  0  0  0
    9.2753    2.3978    2.4154 C   0  0  0  0  0  0  0  0  0  0  0  0
    7.8213    0.5592    0.8082 N   0  0  0  0  0  0  0  0  0  0  0  0
    4.9910    0.7763    0.6237 C   0  0  0  0  0  0  0  0  0  0  0  0
    3.5915    0.8199    0.6107 C   0  0  0  0  0  0  0  0  0  0  0  0
    0.7182    0.2842   -1.1496 C   0  0  0  0  0  0  0  0  0  0  0  0
    1.4122    0.7120   -2.3047 C   0  0  0  0  0  0  0  0  0  0  0  0
    0.7388    1.1515   -3.4447 C   0  0  0  0  0  0  0  0  0  0  0  0
   -0.6466    1.1734   -3.4579 C   0  0  0  0  0  0  0  0  0  0  0  0
   -1.3558    0.7661   -2.3274 C   0  0  0  0  0  0  0  0  0  0  0  0
   -0.6975    0.3267   -1.1558 C   0  0  0  0  0  0  0  0  0  0  0  0
   -3.6658   -1.0884   -0.2471 C   0  0  0  0  0  0  0  0  0  0  0  0
   -5.0619   -0.9821   -0.2316 C   0  0  0  0  0  0  0  0  0  0  0  0
   -7.7025    1.5770    0.1236 N   0  0  0  0  0  0  0  0  0  0  0  0
  -11.0635    3.1184    0.2824 C   0  0  0  0  0  0  0  0  0  0  0  0
  -11.6643    4.3805    0.3335 C   0  0  0  0  0  0  0  0  0  0  0  0
  -11.3435    6.5088    0.3240 H   0  0  0  0  0  0  0  0  0  0  0  0
   -8.8767    6.3067    0.1460 H   0  0  0  0  0  0  0  0  0  0  0  0
   -7.8146    4.0921    0.0549 H   0  0  0  0  0  0  0  0  0  0  0  0
   -8.4150   -3.2387    0.0670 H   0  0  0  0  0  0  0  0  0  0  0  0
   -9.8267   -5.2495   -0.0079 H   0  0  0  0  0  0  0  0  0  0  0  0
  -12.2962   -5.0461   -0.1356 H   0  0  0  0  0  0  0  0  0  0  0  0
  -13.3464   -2.7990   -0.1934 H   0  0  0  0  0  0  0  0  0  0  0  0
  -11.9549   -0.7743   -0.1215 H   0  0  0  0  0  0  0  0  0  0  0  0
   -5.3296    2.3176    0.5553 H   0  0  0  0  0  0  0  0  0  0  0  0
   -2.8810    2.1234    0.5392 H   0  0  0  0  0  0  0  0  0  0  0  0
   -2.5106   -0.8893    2.3993 H   0  0  0  0  0  0  0  0  0  0  0  0
   -1.3141   -1.7145    4.3566 H   0  0  0  0  0  0  0  0  0  0  0  0
    1.1632   -1.8634    4.3382 H   0  0  0  0  0  0  0  0  0  0  0  0
    2.4208   -1.1772    2.3663 H   0  0  0  0  0  0  0  0  0  0  0  0
    2.9832   -2.1132   -0.9947 H   0  0  0  0  0  0  0  0  0  0  0  0
    5.4387   -2.1889   -0.9821 H   0  0  0  0  0  0  0  0  0  0  0  0
    8.0539   -3.0882   -2.4025 H   0  0  0  0  0  0  0  0  0  0  0  0
    9.2525   -4.7739   -3.7316 H   0  0  0  0  0  0  0  0  0  0  0  0
   11.7165   -5.0029   -3.5458 H   0  0  0  0  0  0  0  0  0  0  0  0
   12.9770   -3.5162   -2.0093 H   0  0  0  0  0  0  0  0  0  0  0  0
   11.8027   -1.8223   -0.6714 H   0  0  0  0  0  0  0  0  0  0  0  0
   11.8789    0.7298    1.0002 H   0  0  0  0  0  0  0  0  0  0  0  0
   13.1440    2.3441    2.3522 H   0  0  0  0  0  0  0  0  0  0  0  0
   11.9556    4.0069    3.7601 H   0  0  0  0  0  0  0  0  0  0  0  0
    9.4742    4.0403    3.7998 H   0  0  0  0  0  0  0  0  0  0  0  0
    8.1878    2.4339    2.4567 H   0  0  0  0  0  0  0  0  0  0  0  0
    5.5290    1.6031    1.0862 H   0  0  0  0  0  0  0  0  0  0  0  0
    3.0724    1.6662    1.0551 H   0  0  0  0  0  0  0  0  0  0  0  0
    2.4982    0.7095   -2.3370 H   0  0  0  0  0  0  0  0  0  0  0  0
    1.2999    1.4708   -4.3190 H   0  0  0  0  0  0  0  0  0  0  0  0
   -1.1808    1.5086   -4.3430 H   0  0  0  0  0  0  0  0  0  0  0  0
   -2.4410    0.7966   -2.3805 H   0  0  0  0  0  0  0  0  0  0  0  0
   -3.1976   -2.0425   -0.4765 H   0  0  0  0  0  0  0  0  0  0  0  0
   -5.6506   -1.8712   -0.4528 H   0  0  0  0  0  0  0  0  0  0  0  0
  -11.7047    2.2391    0.3230 H   0  0  0  0  0  0  0  0  0  0  0  0
  -12.7454    4.4633    0.4132 H   0  0  0  0  0  0  0  0  0  0  0  0
  1  2  2  0
  2  3  1  0
  3  4  2  0
  4  5  1  0
  5  6  2  0
  6  7  1  0
  7  8  1  0
  8  9  2  0
  9 10  1  0
 10 11  2  0
 11 12  1  0
 12 13  2  0
  7 14  2  0
 14 15  1  0
 15 16  1  0
 16 17  2  0
 17 18  1  0
 18 19  2  0
 19 20  1  0
 20 21  1  0
 21 22  2  0
 22 23  1  0
 23 24  2  0
 24 25  1  0
 25 26  2  0
 26 27  1  0
 27 28  1  0
 28 29  2  0
 29 30  1  0
 30 31  2  0
 31 32  1  0
 32 33  2  0
 33 34  1  0
 34 35  1  0
 35 36  2  0
 36 37  1  0
 37 38  2  0
 38 39  1  0
 39 40  2  0
 34 41  2  0
 41 42  1  0
 42 43  1  0
 43 44  2  0
 44 45  1  0
 45 46  2  0
 46 47  1  0
 47 48  2  0
 42 49  2  0
 31 50  1  0
 50 51  2  0
 27 52  1  0
 52 53  2  0
 53 54  1  0
 54 55  2  0
 55 56  1  0
 56 57  2  0
 19 58  1  0
 58 59  2  0
 15 60  2  0
  4 61  1  0
 61 62  2  0
 62  1  1  0
 60  5  1  0
 13  8  1  0
 59 16  1  0
 57 20  1  0
 26 21  1  0
 51 28  1  0
 57 52  1  0
 49 32  1  0
 40 35  1  0
 48 43  1  0
  1 63  1  0
  2 64  1  0
  3 65  1  0
  9 66  1  0
 10 67  1  0
 11 68  1  0
 12 69  1  0
 13 70  1  0
 17 71  1  0
 18 72  1  0
 22 73  1  0
 23 74  1  0
 24 75  1  0
 25 76  1  0
 29 77  1  0
 30 78  1  0
 36 79  1  0
 37 80  1  0
 38 81  1  0
 39 82  1  0
 40 83  1  0
 44 84  1  0
 45 85  1  0
 46 86  1  0
 47 87  1  0
 48 88  1  0
 50 89  1  0
 51 90  1  0
 53 91  1  0
 54 92  1  0
 55 93  1  0
 56 94  1  0
 58 95  1  0
 59 96  1  0
 61 97  1  0
 62 98  1  0
M  END
