
     RDKit          3D

 40 45  0  0  0  0  0  0  0  0999 V2000
   -1.6888   -3.6725    1.6258 Si  0  0  0  0  0  4  0  0  0  0  0  0
   -0.0818   -2.7931    1.3421 C   0  0  0  0  0  0  0  0  0  0  0  0
   -0.2743   -1.5793    0.7878 C   0  0  0  0  0  0  0  0  0  0  0  0
    0.7525   -0.7281    0.2723 C   0  0  0  0  0  0  0  0  0  0  0  0
    2.1627   -0.8939    0.3512 C   0  0  0  0  0  0  0  0  0  0  0  0
    2.8622    0.1090   -0.3034 C   0  0  0  0  0  0  0  0  0  0  0  0
    1.7662    1.2317   -1.0048 S   0  0  0  0  0  0  0  0  0  0  0  0
    0.3894    0.3979   -0.4390 C   0  0  0  0  0  0  0  0  0  0  0  0
   -1.0001    0.8523   -0.6434 C   0  0  0  0  0  0  0  0  0  0  0  0
   -1.3222    1.9824   -1.3790 C   0  0  0  0  0  0  0  0  0  0  0  0
   -2.5687    2.4814   -1.5073 N   0  0  0  0  0  0  0  0  0  0  0  0
   -3.5540    1.8969   -0.8183 C   0  0  0  0  0  0  0  0  0  0  0  0
   -4.8056    2.4923   -0.8998 C   0  0  0  0  0  0  0  0  0  0  0  0
   -5.8992    2.0216   -0.1764 C   0  0  0  0  0  0  0  0  0  0  0  0
   -5.7340    0.9396    0.6691 C   0  0  0  0  0  0  0  0  0  0  0  0
   -4.4859    0.3193    0.7553 C   0  0  0  0  0  0  0  0  0  0  0  0
   -3.3693    0.7450   -0.0155 C   0  0  0  0  0  0  0  0  0  0  0  0
   -2.0656    0.1489   -0.0199 C   0  0  0  0  0  0  0  0  0  0  0  0
   -1.7031   -1.1828    0.5899 C   0  0  0  0  0  0  0  0  0  0  0  0
   -2.5561   -2.1923    0.8763 C   0  0  0  0  0  0  0  0  0  0  0  0
    4.3249    0.2551   -0.4279 C   0  0  0  0  0  0  0  0  0  0  0  0
    4.9585    1.3164   -1.0712 C   0  0  0  0  0  0  0  0  0  0  0  0
    6.3519    1.3436   -1.1229 C   0  0  0  0  0  0  0  0  0  0  0  0
    7.0769    0.3167   -0.5343 C   0  0  0  0  0  0  0  0  0  0  0  0
    6.3753   -0.7008    0.0857 C   0  0  0  0  0  0  0  0  0  0  0  0
    5.0269   -0.7534    0.1514 N   0  0  0  0  0  0  0  0  0  0  0  0
   -2.0129   -3.8361    3.0631 H   0  0  0  0  0  0  0  0  0  0  0  0
   -1.8373   -4.8887    0.7918 H   0  0  0  0  0  0  0  0  0  0  0  0
    0.8612   -3.2824    1.5269 H   0  0  0  0  0  0  0  0  0  0  0  0
    2.6643   -1.7103    0.8575 H   0  0  0  0  0  0  0  0  0  0  0  0
   -0.5708    2.5587   -1.9107 H   0  0  0  0  0  0  0  0  0  0  0  0
   -4.9287    3.3658   -1.5372 H   0  0  0  0  0  0  0  0  0  0  0  0
   -6.8617    2.5187   -0.2573 H   0  0  0  0  0  0  0  0  0  0  0  0
   -6.5645    0.5829    1.2728 H   0  0  0  0  0  0  0  0  0  0  0  0
   -4.3883   -0.4786    1.4834 H   0  0  0  0  0  0  0  0  0  0  0  0
   -3.6176   -2.2512    0.7128 H   0  0  0  0  0  0  0  0  0  0  0  0
    4.3995    2.1229   -1.5319 H   0  0  0  0  0  0  0  0  0  0  0  0
    6.8640    2.1628   -1.6198 H   0  0  0  0  0  0  0  0  0  0  0  0
    8.1607    0.3094   -0.5575 H   0  0  0  0  0  0  0  0  0  0  0  0
    6.8934   -1.5282    0.5621 H   0  0  0  0  0  0  0  0  0  0  0  0
  1  2  1  0
  2  3  2  0
  3  4  1  0
  4  5  1  0
  5  6  2  0
  6  7  1  0
  7  8  1  0
  8  9  1  0
  9 10  2  0
 10 11  1  0
 11 12  2  0
 12 13  1  0
 13 14  2  0
 14 15  1  0
 15 16  2  0
 16 17  1  0
 17 18  2  0
 18 19  1  0
 19 20  2  0
  6 21  1  0
 21 22  2  0
 22 23  1  0
 23 24  2  0
 24 25  1  0
 25 26  2  0
 20  1  1  0
 26 21  1  0
 19  3  1  0
  8  4  2  0
 18  9  1  0
 17 12  1  0
  1 27  1  0
  1 28  1  0
  2 29  1  0
  5 30  1  0
 10 31  1  0
 13 32  1  0
 14 33  1  0
 15 34  1  0
 16 35  1  0
 20 36  1  0
 22 37  1  0
 23 38  1  0
 24 39  1  0
 25 40  1  0
M  END
