
     RDKit          3D

 79 88  0  0  0  0  0  0  0  0999 V2000
   -9.9803   -2.6458   -1.0097 C   0  0  0  0  0  0  0  0  0  0  0  0
   -9.9967   -1.2802   -0.7458 C   0  0  0  0  0  0  0  0  0  0  0  0
   -8.7957   -0.5909   -0.5479 C   0  0  0  0  0  0  0  0  0  0  0  0
   -7.5499   -1.2470   -0.6073 C   0  0  0  0  0  0  0  0  0  0  0  0
   -6.2840   -0.5151   -0.3961 C   0  0  0  0  0  0  0  0  0  0  0  0
   -6.3252    0.8141   -0.4422 N   0  0  0  0  0  0  0  0  0  0  0  0
   -5.1593    1.4277   -0.2551 C   0  0  0  0  0  0  0  0  0  0  0  0
   -5.1508    2.9042   -0.2868 C   0  0  0  0  0  0  0  0  0  0  0  0
   -6.2321    3.6322   -0.8222 C   0  0  0  0  0  0  0  0  0  0  0  0
   -6.2273    5.0304   -0.8570 C   0  0  0  0  0  0  0  0  0  0  0  0
   -5.1394    5.7357   -0.3523 C   0  0  0  0  0  0  0  0  0  0  0  0
   -4.0587    5.0451    0.1875 C   0  0  0  0  0  0  0  0  0  0  0  0
   -4.0661    3.6467    0.2190 C   0  0  0  0  0  0  0  0  0  0  0  0
   -4.0015    0.8000   -0.0418 N   0  0  0  0  0  0  0  0  0  0  0  0
   -4.0510   -0.5337   -0.0047 C   0  0  0  0  0  0  0  0  0  0  0  0
   -2.8235   -1.2610    0.2289 N   0  0  0  0  0  0  0  0  0  0  0  0
   -2.7285   -2.6278    0.5343 C   0  0  0  0  0  0  0  0  0  0  0  0
   -3.7078   -3.6269    0.7254 C   0  0  0  0  0  0  0  0  0  0  0  0
   -3.3065   -4.9310    1.0320 C   0  0  0  0  0  0  0  0  0  0  0  0
   -1.9632   -5.2485    1.1611 C   0  0  0  0  0  0  0  0  0  0  0  0
   -0.9919   -4.2607    0.9938 C   0  0  0  0  0  0  0  0  0  0  0  0
   -1.3734   -2.9357    0.6830 C   0  0  0  0  0  0  0  0  0  0  0  0
   -0.6281   -1.7427    0.4722 C   0  0  0  0  0  0  0  0  0  0  0  0
    0.7588   -1.4625    0.4973 C   0  0  0  0  0  0  0  0  0  0  0  0
    1.2483   -0.1749    0.2225 C   0  0  0  0  0  0  0  0  0  0  0  0
    2.6947    0.1052    0.2404 C   0  0  0  0  0  0  0  0  0  0  0  0
    3.2172    1.1579    0.9990 C   0  0  0  0  0  0  0  0  0  0  0  0
    4.5888    1.4434    1.0266 C   0  0  0  0  0  0  0  0  0  0  0  0
    5.4632    0.6570    0.2508 C   0  0  0  0  0  0  0  0  0  0  0  0
    4.9814   -0.4276   -0.4835 C   0  0  0  0  0  0  0  0  0  0  0  0
    3.5916   -0.6895   -0.4955 C   0  0  0  0  0  0  0  0  0  0  0  0
    6.0964   -1.0735   -1.0920 C   0  0  0  0  0  0  0  0  0  0  0  0
    6.2151   -2.2038   -1.9318 C   0  0  0  0  0  0  0  0  0  0  0  0
    7.4682   -2.5851   -2.4163 C   0  0  0  0  0  0  0  0  0  0  0  0
    8.5983   -1.8489   -2.0879 C   0  0  0  0  0  0  0  0  0  0  0  0
    8.5070   -0.7285   -1.2563 C   0  0  0  0  0  0  0  0  0  0  0  0
    7.2468   -0.3661   -0.7345 C   0  0  0  0  0  0  0  0  0  0  0  0
    6.8515    0.6890    0.0926 N   0  0  0  0  0  0  0  0  0  0  0  0
    7.7286    1.6479    0.6836 C   0  0  0  0  0  0  0  0  0  0  0  0
    7.3893    3.0070    0.6831 C   0  0  0  0  0  0  0  0  0  0  0  0
    8.2515    3.9415    1.2608 C   0  0  0  0  0  0  0  0  0  0  0  0
    9.4484    3.5244    1.8416 C   0  0  0  0  0  0  0  0  0  0  0  0
    9.7885    2.1724    1.8458 C   0  0  0  0  0  0  0  0  0  0  0  0
    8.9329    1.2329    1.2666 C   0  0  0  0  0  0  0  0  0  0  0  0
    0.3224    0.8263   -0.0803 C   0  0  0  0  0  0  0  0  0  0  0  0
   -1.0567    0.5779   -0.1077 C   0  0  0  0  0  0  0  0  0  0  0  0
   -1.5301   -0.7168    0.1861 C   0  0  0  0  0  0  0  0  0  0  0  0
   -5.1787   -1.2282   -0.1734 N   0  0  0  0  0  0  0  0  0  0  0  0
   -7.5670   -2.6284   -0.8808 C   0  0  0  0  0  0  0  0  0  0  0  0
   -8.7659   -3.3212   -1.0785 C   0  0  0  0  0  0  0  0  0  0  0  0
  -10.9124   -3.1829   -1.1640 H   0  0  0  0  0  0  0  0  0  0  0  0
  -10.9427   -0.7471   -0.6930 H   0  0  0  0  0  0  0  0  0  0  0  0
   -8.8397    0.4771   -0.3407 H   0  0  0  0  0  0  0  0  0  0  0  0
   -7.0961    3.1064   -1.2263 H   0  0  0  0  0  0  0  0  0  0  0  0
   -7.0747    5.5647   -1.2790 H   0  0  0  0  0  0  0  0  0  0  0  0
   -5.1343    6.8223   -0.3785 H   0  0  0  0  0  0  0  0  0  0  0  0
   -3.2075    5.5918    0.5852 H   0  0  0  0  0  0  0  0  0  0  0  0
   -3.2103    3.1351    0.6555 H   0  0  0  0  0  0  0  0  0  0  0  0
   -4.7682   -3.4127    0.6515 H   0  0  0  0  0  0  0  0  0  0  0  0
   -4.0599   -5.7022    1.1757 H   0  0  0  0  0  0  0  0  0  0  0  0
   -1.6643   -6.2654    1.4016 H   0  0  0  0  0  0  0  0  0  0  0  0
    0.0587   -4.5137    1.1073 H   0  0  0  0  0  0  0  0  0  0  0  0
    1.4517   -2.2653    0.7388 H   0  0  0  0  0  0  0  0  0  0  0  0
    2.5512    1.7693    1.6070 H   0  0  0  0  0  0  0  0  0  0  0  0
    4.9528    2.2475    1.6591 H   0  0  0  0  0  0  0  0  0  0  0  0
    3.2193   -1.5207   -1.0900 H   0  0  0  0  0  0  0  0  0  0  0  0
    5.3321   -2.7718   -2.2119 H   0  0  0  0  0  0  0  0  0  0  0  0
    7.5540   -3.4528   -3.0658 H   0  0  0  0  0  0  0  0  0  0  0  0
    9.5664   -2.1396   -2.4890 H   0  0  0  0  0  0  0  0  0  0  0  0
    9.4001   -0.1491   -1.0427 H   0  0  0  0  0  0  0  0  0  0  0  0
    6.4823    3.3628    0.2005 H   0  0  0  0  0  0  0  0  0  0  0  0
    7.9933    4.9975    1.2503 H   0  0  0  0  0  0  0  0  0  0  0  0
   10.1169    4.2537    2.2922 H   0  0  0  0  0  0  0  0  0  0  0  0
   10.7172    1.8476    2.3081 H   0  0  0  0  0  0  0  0  0  0  0  0
    9.2016    0.1803    1.3186 H   0  0  0  0  0  0  0  0  0  0  0  0
    0.6692    1.8301   -0.3224 H   0  0  0  0  0  0  0  0  0  0  0  0
   -1.7263    1.3895   -0.3710 H   0  0  0  0  0  0  0  0  0  0  0  0
   -6.6331   -3.1826   -0.9525 H   0  0  0  0  0  0  0  0  0  0  0  0
   -8.7469   -4.3870   -1.2893 H   0  0  0  0  0  0  0  0  0  0  0  0
  1  2  2  0
  2  3  1  0
  3  4  2  0
  4  5  1  0
  5  6  2  0
  6  7  1  0
  7  8  1  0
  8  9  2  0
  9 10  1  0
 10 11  2  0
 11 12  1  0
 12 13  2  0
  7 14  2  0
 14 15  1  0
 15 16  1  0
 16 17  1  0
 17 18  2  0
 18 19  1  0
 19 20  2  0
 20 21  1  0
 21 22  2  0
 22 23  1  0
 23 24  2  0
 24 25  1  0
 25 26  1  0
 26 27  2  0
 27 28  1  0
 28 29  2  0
 29 30  1  0
 30 31  2  0
 30 32  1  0
 32 33  2  0
 33 34  1  0
 34 35  2  0
 35 36  1  0
 36 37  2  0
 37 38  1  0
 38 39  1  0
 39 40  2  0
 40 41  1  0
 41 42  2  0
 42 43  1  0
 43 44  2  0
 25 45  2  0
 45 46  1  0
 46 47  2  0
 15 48  2  0
  4 49  1  0
 49 50  2  0
 50  1  1  0
 48  5  1  0
 13  8  1  0
 47 16  1  0
 22 17  1  0
 47 23  1  0
 31 26  1  0
 37 32  1  0
 44 39  1  0
 38 29  1  0
  1 51  1  0
  2 52  1  0
  3 53  1  0
  9 54  1  0
 10 55  1  0
 11 56  1  0
 12 57  1  0
 13 58  1  0
 18 59  1  0
 19 60  1  0
 20 61  1  0
 21 62  1  0
 24 63  1  0
 27 64  1  0
 28 65  1  0
 31 66  1  0
 33 67  1  0
 34 68  1  0
 35 69  1  0
 36 70  1  0
 40 71  1  0
 41 72  1  0
 42 73  1  0
 43 74  1  0
 44 75  1  0
 45 76  1  0
 46 77  1  0
 49 78  1  0
 50 79  1  0
M  END
