
     RDKit          3D

 37 40  0  0  0  0  0  0  0  0999 V2000
    6.3347   -0.4786    1.1459 C   0  0  0  0  0  0  0  0  0  0  0  0
    5.8005    0.7352    0.7264 C   0  0  0  0  0  0  0  0  0  0  0  0
    4.4594    0.8119    0.3383 C   0  0  0  0  0  0  0  0  0  0  0  0
    3.6208   -0.3189    0.3536 C   0  0  0  0  0  0  0  0  0  0  0  0
    4.1860   -1.5313    0.7921 C   0  0  0  0  0  0  0  0  0  0  0  0
    5.5277   -1.6117    1.1819 C   0  0  0  0  0  0  0  0  0  0  0  0
    2.2070   -0.2140   -0.0679 C   0  0  0  0  0  0  0  0  0  0  0  0
    1.5120   -1.2662   -0.6650 C   0  0  0  0  0  0  0  0  0  0  0  0
    0.1766   -1.0890   -1.0328 C   0  0  0  0  0  0  0  0  0  0  0  0
   -0.4545    0.1341   -0.8038 C   0  0  0  0  0  0  0  0  0  0  0  0
    0.3156    1.1317   -0.2149 C   0  0  0  0  0  0  0  0  0  0  0  0
    1.6129    0.9873    0.1505 N   0  0  0  0  0  0  0  0  0  0  0  0
   -1.8566    0.3597   -1.1757 C   0  0  0  0  0  0  0  0  0  0  0  0
   -2.1449    0.6811   -2.5153 C   0  0  0  0  0  0  0  0  0  0  0  0
   -3.4513    0.9152   -2.9310 C   0  0  0  0  0  0  0  0  0  0  0  0
   -4.4942    0.8312   -2.0135 C   0  0  0  0  0  0  0  0  0  0  0  0
   -4.2486    0.5103   -0.6705 C   0  0  0  0  0  0  0  0  0  0  0  0
   -5.3157    0.4283    0.2396 C   0  0  0  0  0  0  0  0  0  0  0  0
   -5.0957    0.1075    1.5781 C   0  0  0  0  0  0  0  0  0  0  0  0
   -3.8044   -0.1374    2.0245 C   0  0  0  0  0  0  0  0  0  0  0  0
   -2.7327   -0.0597    1.1322 C   0  0  0  0  0  0  0  0  0  0  0  0
   -2.9213    0.2675   -0.2321 C   0  0  0  0  0  0  0  0  0  0  0  0
    7.3759   -0.5395    1.4510 H   0  0  0  0  0  0  0  0  0  0  0  0
    6.4216    1.6267    0.7021 H   0  0  0  0  0  0  0  0  0  0  0  0
    4.0613    1.7734    0.0163 H   0  0  0  0  0  0  0  0  0  0  0  0
    3.5811   -2.4327    0.8562 H   0  0  0  0  0  0  0  0  0  0  0  0
    5.9381   -2.5597    1.5201 H   0  0  0  0  0  0  0  0  0  0  0  0
    1.9945   -2.2171   -0.8645 H   0  0  0  0  0  0  0  0  0  0  0  0
   -0.3667   -1.9090   -1.4965 H   0  0  0  0  0  0  0  0  0  0  0  0
   -0.1044    2.1137   -0.0100 H   0  0  0  0  0  0  0  0  0  0  0  0
   -1.3387    0.7547   -3.2437 H   0  0  0  0  0  0  0  0  0  0  0  0
   -3.6569    1.1649   -3.9686 H   0  0  0  0  0  0  0  0  0  0  0  0
   -5.5093    1.0190   -2.3576 H   0  0  0  0  0  0  0  0  0  0  0  0
   -6.3356    0.6150   -0.0905 H   0  0  0  0  0  0  0  0  0  0  0  0
   -5.9327    0.0486    2.2687 H   0  0  0  0  0  0  0  0  0  0  0  0
   -3.6251   -0.3897    3.0665 H   0  0  0  0  0  0  0  0  0  0  0  0
   -1.7362   -0.2624    1.5205 H   0  0  0  0  0  0  0  0  0  0  0  0
  1  2  2  0
  2  3  1  0
  3  4  2  0
  4  5  1  0
  5  6  2  0
  4  7  1  0
  7  8  2  0
  8  9  1  0
  9 10  2  0
 10 11  1  0
 11 12  2  0
 10 13  1  0
 13 14  2  0
 14 15  1  0
 15 16  2  0
 16 17  1  0
 17 18  2  0
 18 19  1  0
 19 20  2  0
 20 21  1  0
 21 22  2  0
  6  1  1  0
 12  7  1  0
 22 13  1  0
 22 17  1  0
  1 23  1  0
  2 24  1  0
  3 25  1  0
  5 26  1  0
  6 27  1  0
  8 28  1  0
  9 29  1  0
 11 30  1  0
 14 31  1  0
 15 32  1  0
 16 33  1  0
 18 34  1  0
 19 35  1  0
 20 36  1  0
 21 37  1  0
M  END
