
     RDKit          3D

 34 38  0  0  0  0  0  0  0  0999 V2000
    6.2546    0.4247   -0.3484 C   0  0  0  0  0  0  0  0  0  0  0  0
    5.4259    1.4282    0.1460 C   0  0  0  0  0  0  0  0  0  0  0  0
    4.0595    1.1878    0.3146 C   0  0  0  0  0  0  0  0  0  0  0  0
    3.4980   -0.0599   -0.0062 C   0  0  0  0  0  0  0  0  0  0  0  0
    4.3524   -1.0581   -0.5049 C   0  0  0  0  0  0  0  0  0  0  0  0
    5.7188   -0.8182   -0.6747 C   0  0  0  0  0  0  0  0  0  0  0  0
    2.0600   -0.3116    0.1734 C   0  0  0  0  0  0  0  0  0  0  0  0
    1.5985   -1.4157    0.9087 C   0  0  0  0  0  0  0  0  0  0  0  0
    0.3036   -1.7590    1.1425 N   0  0  0  0  0  0  0  0  0  0  0  0
   -0.5976   -0.9099    0.5875 C   0  0  0  0  0  0  0  0  0  0  0  0
   -0.2278    0.2060   -0.1511 C   0  0  0  0  0  0  0  0  0  0  0  0
    1.0990    0.5455   -0.3839 C   0  0  0  0  0  0  0  0  0  0  0  0
   -1.3284    0.8766   -0.5883 O   0  0  0  0  0  0  0  0  0  0  0  0
   -2.4142    0.1860   -0.1261 C   0  0  0  0  0  0  0  0  0  0  0  0
   -2.0125   -0.9252    0.6058 C   0  0  0  0  0  0  0  0  0  0  0  0
   -3.0003   -1.7413    1.1506 C   0  0  0  0  0  0  0  0  0  0  0  0
   -4.3171   -1.4451    0.9623 N   0  0  0  0  0  0  0  0  0  0  0  0
   -4.6862   -0.3616    0.2485 C   0  0  0  0  0  0  0  0  0  0  0  0
   -6.0250   -0.0704    0.0638 C   0  0  0  0  0  0  0  0  0  0  0  0
   -6.3871    1.0487   -0.6735 C   0  0  0  0  0  0  0  0  0  0  0  0
   -5.5048    1.8999   -1.2409 N   0  0  0  0  0  0  0  0  0  0  0  0
   -4.1984    1.6173   -1.0619 C   0  0  0  0  0  0  0  0  0  0  0  0
   -3.7603    0.5117   -0.3338 C   0  0  0  0  0  0  0  0  0  0  0  0
    7.3173    0.6116   -0.4805 H   0  0  0  0  0  0  0  0  0  0  0  0
    5.8418    2.3990    0.4033 H   0  0  0  0  0  0  0  0  0  0  0  0
    3.4352    1.9857    0.7125 H   0  0  0  0  0  0  0  0  0  0  0  0
    3.9577   -2.0342   -0.7811 H   0  0  0  0  0  0  0  0  0  0  0  0
    6.3630   -1.6019   -1.0654 H   0  0  0  0  0  0  0  0  0  0  0  0
    2.3134   -2.0971    1.3700 H   0  0  0  0  0  0  0  0  0  0  0  0
    1.3608    1.4156   -0.9738 H   0  0  0  0  0  0  0  0  0  0  0  0
   -2.7792   -2.6279    1.7351 H   0  0  0  0  0  0  0  0  0  0  0  0
   -6.7852   -0.7135    0.4931 H   0  0  0  0  0  0  0  0  0  0  0  0
   -7.4339    1.2955   -0.8305 H   0  0  0  0  0  0  0  0  0  0  0  0
   -3.5018    2.3105   -1.5241 H   0  0  0  0  0  0  0  0  0  0  0  0
  1  2  2  0
  2  3  1  0
  3  4  2  0
  4  5  1  0
  5  6  2  0
  4  7  1  0
  7  8  2  0
  8  9  1  0
  9 10  2  0
 10 11  1  0
 11 12  2  0
 11 13  1  0
 13 14  1  0
 14 15  2  0
 15 16  1  0
 16 17  2  0
 17 18  1  0
 18 19  2  0
 19 20  1  0
 20 21  2  0
 21 22  1  0
 22 23  2  0
  6  1  1  0
 12  7  1  0
 23 14  1  0
 15 10  1  0
 23 18  1  0
  1 24  1  0
  2 25  1  0
  3 26  1  0
  5 27  1  0
  6 28  1  0
  8 29  1  0
 12 30  1  0
 16 31  1  0
 19 32  1  0
 20 33  1  0
 22 34  1  0
M  END
