
     RDKit          3D

 74 82  0  0  0  0  0  0  0  0999 V2000
   -5.3022    1.4197    4.8327 C   0  0  0  0  0  0  0  0  0  0  0  0
   -4.6657    0.2859    4.3333 C   0  0  0  0  0  0  0  0  0  0  0  0
   -4.5777    0.0827    2.9536 C   0  0  0  0  0  0  0  0  0  0  0  0
   -5.1249    1.0100    2.0486 C   0  0  0  0  0  0  0  0  0  0  0  0
   -5.0225    0.8049    0.6224 N   0  0  0  0  0  0  0  0  0  0  0  0
   -6.1364    1.1283   -0.2390 C   0  0  0  0  0  0  0  0  0  0  0  0
   -5.9325    1.7380   -1.4901 C   0  0  0  0  0  0  0  0  0  0  0  0
   -7.0107    2.0528   -2.3221 C   0  0  0  0  0  0  0  0  0  0  0  0
   -8.3124    1.7646   -1.9177 C   0  0  0  0  0  0  0  0  0  0  0  0
   -8.5371    1.1612   -0.6829 C   0  0  0  0  0  0  0  0  0  0  0  0
   -7.4589    0.8452    0.1491 C   0  0  0  0  0  0  0  0  0  0  0  0
   -3.7928    0.2999    0.0556 C   0  0  0  0  0  0  0  0  0  0  0  0
   -2.5506    0.7469    0.5204 C   0  0  0  0  0  0  0  0  0  0  0  0
   -1.3468    0.2730   -0.0156 C   0  0  0  0  0  0  0  0  0  0  0  0
   -1.3907   -0.6937   -1.0389 C   0  0  0  0  0  0  0  0  0  0  0  0
   -2.6123   -1.1300   -1.5547 C   0  0  0  0  0  0  0  0  0  0  0  0
   -3.8132   -0.6410   -0.9907 C   0  0  0  0  0  0  0  0  0  0  0  0
   -2.3379   -2.0326   -2.6218 C   0  0  0  0  0  0  0  0  0  0  0  0
   -3.1652   -2.7671   -3.4996 C   0  0  0  0  0  0  0  0  0  0  0  0
   -2.5953   -3.6252   -4.4433 C   0  0  0  0  0  0  0  0  0  0  0  0
   -1.2166   -3.7713   -4.5122 C   0  0  0  0  0  0  0  0  0  0  0  0
   -0.3760   -3.0518   -3.6588 C   0  0  0  0  0  0  0  0  0  0  0  0
   -0.9508   -2.1535   -2.7333 C   0  0  0  0  0  0  0  0  0  0  0  0
   -0.3777   -1.3216   -1.7683 N   0  0  0  0  0  0  0  0  0  0  0  0
    1.0221   -1.1308   -1.5698 C   0  0  0  0  0  0  0  0  0  0  0  0
    1.5535   -1.1010   -0.2801 C   0  0  0  0  0  0  0  0  0  0  0  0
    2.9248   -0.8897   -0.0951 C   0  0  0  0  0  0  0  0  0  0  0  0
    3.8052   -0.7032   -1.1794 C   0  0  0  0  0  0  0  0  0  0  0  0
    5.2493   -0.4654   -0.9417 C   0  0  0  0  0  0  0  0  0  0  0  0
    6.2347   -0.6752   -1.8961 C   0  0  0  0  0  0  0  0  0  0  0  0
    7.5602   -0.4085   -1.5677 C   0  0  0  0  0  0  0  0  0  0  0  0
    7.8873    0.0564   -0.2902 C   0  0  0  0  0  0  0  0  0  0  0  0
    9.2179    0.3278    0.0418 C   0  0  0  0  0  0  0  0  0  0  0  0
    9.5354    0.7843    1.3126 C   0  0  0  0  0  0  0  0  0  0  0  0
    8.5249    0.9670    2.2616 C   0  0  0  0  0  0  0  0  0  0  0  0
    8.8428    1.4217    3.5490 C   0  0  0  0  0  0  0  0  0  0  0  0
    7.8402    1.5996    4.4918 C   0  0  0  0  0  0  0  0  0  0  0  0
    6.5467    1.3165    4.1126 C   0  0  0  0  0  0  0  0  0  0  0  0
    6.2068    0.8780    2.8829 N   0  0  0  0  0  0  0  0  0  0  0  0
    7.1713    0.6966    1.9432 C   0  0  0  0  0  0  0  0  0  0  0  0
    6.8513    0.2412    0.6511 C   0  0  0  0  0  0  0  0  0  0  0  0
    5.5674   -0.0229    0.3005 N   0  0  0  0  0  0  0  0  0  0  0  0
    3.2410   -0.7359   -2.4676 C   0  0  0  0  0  0  0  0  0  0  0  0
    1.8698   -0.9514   -2.6664 C   0  0  0  0  0  0  0  0  0  0  0  0
   -5.7647    2.1469    2.5741 C   0  0  0  0  0  0  0  0  0  0  0  0
   -5.8530    2.3491    3.9544 C   0  0  0  0  0  0  0  0  0  0  0  0
   -5.3691    1.5777    5.9054 H   0  0  0  0  0  0  0  0  0  0  0  0
   -4.2379   -0.4419    5.0159 H   0  0  0  0  0  0  0  0  0  0  0  0
   -4.0875   -0.8153    2.5855 H   0  0  0  0  0  0  0  0  0  0  0  0
   -4.9267    1.9924   -1.8167 H   0  0  0  0  0  0  0  0  0  0  0  0
   -6.8322    2.5269   -3.2838 H   0  0  0  0  0  0  0  0  0  0  0  0
   -9.1499    2.0097   -2.5664 H   0  0  0  0  0  0  0  0  0  0  0  0
   -9.5511    0.9321   -0.3647 H   0  0  0  0  0  0  0  0  0  0  0  0
   -7.6562    0.3595    1.1011 H   0  0  0  0  0  0  0  0  0  0  0  0
   -2.5031    1.5043    1.3008 H   0  0  0  0  0  0  0  0  0  0  0  0
   -0.4078    0.6777    0.3494 H   0  0  0  0  0  0  0  0  0  0  0  0
   -4.7619   -1.0078   -1.3731 H   0  0  0  0  0  0  0  0  0  0  0  0
   -4.2458   -2.6746   -3.4361 H   0  0  0  0  0  0  0  0  0  0  0  0
   -3.2365   -4.1893   -5.1155 H   0  0  0  0  0  0  0  0  0  0  0  0
   -0.7831   -4.4618   -5.2333 H   0  0  0  0  0  0  0  0  0  0  0  0
    0.6974   -3.2060   -3.7107 H   0  0  0  0  0  0  0  0  0  0  0  0
    0.9324   -1.2706    0.5959 H   0  0  0  0  0  0  0  0  0  0  0  0
    3.3146   -0.8726    0.9241 H   0  0  0  0  0  0  0  0  0  0  0  0
    6.0008   -1.0533   -2.8846 H   0  0  0  0  0  0  0  0  0  0  0  0
    8.3321   -0.5702   -2.3165 H   0  0  0  0  0  0  0  0  0  0  0  0
   10.0144    0.1859   -0.6856 H   0  0  0  0  0  0  0  0  0  0  0  0
   10.5747    0.9918    1.5579 H   0  0  0  0  0  0  0  0  0  0  0  0
    9.8723    1.6387    3.8239 H   0  0  0  0  0  0  0  0  0  0  0  0
    8.0622    1.9513    5.4925 H   0  0  0  0  0  0  0  0  0  0  0  0
    5.7172    1.4351    4.8043 H   0  0  0  0  0  0  0  0  0  0  0  0
    3.8544   -0.5598   -3.3476 H   0  0  0  0  0  0  0  0  0  0  0  0
    1.4802   -0.9192   -3.6817 H   0  0  0  0  0  0  0  0  0  0  0  0
   -6.1823    2.8964    1.9068 H   0  0  0  0  0  0  0  0  0  0  0  0
   -6.3492    3.2366    4.3382 H   0  0  0  0  0  0  0  0  0  0  0  0
  1  2  2  0
  2  3  1  0
  3  4  2  0
  4  5  1  0
  5  6  1  0
  6  7  2  0
  7  8  1  0
  8  9  2  0
  9 10  1  0
 10 11  2  0
  5 12  1  0
 12 13  2  0
 13 14  1  0
 14 15  2  0
 15 16  1  0
 16 17  2  0
 16 18  1  0
 18 19  2  0
 19 20  1  0
 20 21  2  0
 21 22  1  0
 22 23  2  0
 23 24  1  0
 24 25  1  0
 25 26  2  0
 26 27  1  0
 27 28  2  0
 28 29  1  0
 29 30  2  0
 30 31  1  0
 31 32  2  0
 32 33  1  0
 33 34  2  0
 34 35  1  0
 35 36  2  0
 36 37  1  0
 37 38  2  0
 38 39  1  0
 39 40  2  0
 40 41  1  0
 41 42  2  0
 28 43  1  0
 43 44  2  0
  4 45  1  0
 45 46  2  0
 46  1  1  0
 11  6  1  0
 17 12  1  0
 23 18  1  0
 44 25  1  0
 24 15  1  0
 42 29  1  0
 41 32  1  0
 40 35  1  0
  1 47  1  0
  2 48  1  0
  3 49  1  0
  7 50  1  0
  8 51  1  0
  9 52  1  0
 10 53  1  0
 11 54  1  0
 13 55  1  0
 14 56  1  0
 17 57  1  0
 19 58  1  0
 20 59  1  0
 21 60  1  0
 22 61  1  0
 26 62  1  0
 27 63  1  0
 30 64  1  0
 31 65  1  0
 33 66  1  0
 34 67  1  0
 36 68  1  0
 37 69  1  0
 38 70  1  0
 43 71  1  0
 44 72  1  0
 45 73  1  0
 46 74  1  0
M  END
