
     RDKit          3D

 34 36  0  0  0  0  0  0  0  0999 V2000
    4.0755   -1.2356   -0.1821 C   0  0  0  0  0  0  0  0  0  0  0  0
    3.6784   -0.2895    0.7597 C   0  0  0  0  0  0  0  0  0  0  0  0
    2.3426    0.1159    0.8242 C   0  0  0  0  0  0  0  0  0  0  0  0
    1.3805   -0.4185   -0.0513 C   0  0  0  0  0  0  0  0  0  0  0  0
   -0.0000    0.0000    0.0157 N   0  0  0  0  0  0  0  0  0  0  0  0
   -1.0573   -0.9716   -0.1377 C   0  0  0  0  0  0  0  0  0  0  0  0
   -0.9619   -2.2449    0.4516 C   0  0  0  0  0  0  0  0  0  0  0  0
   -1.9853   -3.1849    0.3035 C   0  0  0  0  0  0  0  0  0  0  0  0
   -3.1215   -2.8683   -0.4372 C   0  0  0  0  0  0  0  0  0  0  0  0
   -3.2362   -1.6131   -1.0297 C   0  0  0  0  0  0  0  0  0  0  0  0
   -2.2132   -0.6728   -0.8809 C   0  0  0  0  0  0  0  0  0  0  0  0
   -0.3232    1.3901    0.2362 C   0  0  0  0  0  0  0  0  0  0  0  0
   -1.3795    1.7619    1.0869 C   0  0  0  0  0  0  0  0  0  0  0  0
   -1.6919    3.1072    1.3007 C   0  0  0  0  0  0  0  0  0  0  0  0
   -0.9540    4.1039    0.6668 C   0  0  0  0  0  0  0  0  0  0  0  0
    0.0960    3.7577   -0.1802 C   0  0  0  0  0  0  0  0  0  0  0  0
    0.4090    2.4125   -0.3932 C   0  0  0  0  0  0  0  0  0  0  0  0
    1.8030   -1.3727   -0.9940 C   0  0  0  0  0  0  0  0  0  0  0  0
    3.1390   -1.7774   -1.0591 C   0  0  0  0  0  0  0  0  0  0  0  0
    5.1145   -1.5506   -0.2325 H   0  0  0  0  0  0  0  0  0  0  0  0
    4.4055    0.1326    1.4484 H   0  0  0  0  0  0  0  0  0  0  0  0
    2.0505    0.8427    1.5786 H   0  0  0  0  0  0  0  0  0  0  0  0
   -0.0914   -2.5065    1.0486 H   0  0  0  0  0  0  0  0  0  0  0  0
   -1.8939   -4.1619    0.7707 H   0  0  0  0  0  0  0  0  0  0  0  0
   -3.9172   -3.5996   -0.5526 H   0  0  0  0  0  0  0  0  0  0  0  0
   -4.1194   -1.3638   -1.6118 H   0  0  0  0  0  0  0  0  0  0  0  0
   -2.3153    0.2950   -1.3665 H   0  0  0  0  0  0  0  0  0  0  0  0
   -1.9571    1.0002    1.6055 H   0  0  0  0  0  0  0  0  0  0  0  0
   -2.5094    3.3735    1.9654 H   0  0  0  0  0  0  0  0  0  0  0  0
   -1.1972    5.1501    0.8327 H   0  0  0  0  0  0  0  0  0  0  0  0
    0.6715    4.5325   -0.6798 H   0  0  0  0  0  0  0  0  0  0  0  0
    1.2214    2.1639   -1.0721 H   0  0  0  0  0  0  0  0  0  0  0  0
    1.0917   -1.7953   -1.6998 H   0  0  0  0  0  0  0  0  0  0  0  0
    3.4459   -2.5129   -1.7980 H   0  0  0  0  0  0  0  0  0  0  0  0
  1  2  2  0
  2  3  1  0
  3  4  2  0
  4  5  1  0
  5  6  1  0
  6  7  2  0
  7  8  1  0
  8  9  2  0
  9 10  1  0
 10 11  2  0
  5 12  1  0
 12 13  2  0
 13 14  1  0
 14 15  2  0
 15 16  1  0
 16 17  2  0
  4 18  1  0
 18 19  2  0
 19  1  1  0
 11  6  1  0
 17 12  1  0
  1 20  1  0
  2 21  1  0
  3 22  1  0
  7 23  1  0
  8 24  1  0
  9 25  1  0
 10 26  1  0
 11 27  1  0
 13 28  1  0
 14 29  1  0
 15 30  1  0
 16 31  1  0
 17 32  1  0
 18 33  1  0
 19 34  1  0
M  END
