
     RDKit          3D

 32 35  0  0  0  0  0  0  0  0999 V2000
    4.3555   -0.4283    0.5146 C   0  0  0  0  0  0  0  0  0  0  0  0
    3.6481   -1.3143   -0.2968 C   0  0  0  0  0  0  0  0  0  0  0  0
    2.2653   -1.1824   -0.4398 C   0  0  0  0  0  0  0  0  0  0  0  0
    1.5870   -0.1561    0.2299 C   0  0  0  0  0  0  0  0  0  0  0  0
    0.1738   -0.0171    0.0846 N   0  0  0  0  0  0  0  0  0  0  0  0
   -0.7492   -1.0658    0.1212 C   0  0  0  0  0  0  0  0  0  0  0  0
   -0.5913   -2.4469    0.3652 C   0  0  0  0  0  0  0  0  0  0  0  0
   -1.7221   -3.2689    0.3581 C   0  0  0  0  0  0  0  0  0  0  0  0
   -2.9854   -2.7385    0.1353 C   0  0  0  0  0  0  0  0  0  0  0  0
   -3.1463   -1.3662   -0.0687 C   0  0  0  0  0  0  0  0  0  0  0  0
   -2.0193   -0.5140   -0.0631 C   0  0  0  0  0  0  0  0  0  0  0  0
   -1.8662    0.8961   -0.2032 C   0  0  0  0  0  0  0  0  0  0  0  0
   -2.7853    1.9495   -0.4081 C   0  0  0  0  0  0  0  0  0  0  0  0
   -2.3251    3.2608   -0.5482 C   0  0  0  0  0  0  0  0  0  0  0  0
   -0.9648    3.5331   -0.5011 C   0  0  0  0  0  0  0  0  0  0  0  0
   -0.0360    2.5086   -0.2963 C   0  0  0  0  0  0  0  0  0  0  0  0
   -0.5030    1.1889   -0.1166 C   0  0  0  0  0  0  0  0  0  0  0  0
    2.3012    0.7333    1.0428 C   0  0  0  0  0  0  0  0  0  0  0  0
    3.6834    0.5933    1.1842 C   0  0  0  0  0  0  0  0  0  0  0  0
    5.4317   -0.5342    0.6253 H   0  0  0  0  0  0  0  0  0  0  0  0
    4.1751   -2.1043   -0.8261 H   0  0  0  0  0  0  0  0  0  0  0  0
    1.7427   -1.8608   -1.1098 H   0  0  0  0  0  0  0  0  0  0  0  0
    0.3815   -2.8802    0.5759 H   0  0  0  0  0  0  0  0  0  0  0  0
   -1.6093   -4.3354    0.5390 H   0  0  0  0  0  0  0  0  0  0  0  0
   -3.8559   -3.3893    0.1347 H   0  0  0  0  0  0  0  0  0  0  0  0
   -4.1403   -0.9553   -0.2214 H   0  0  0  0  0  0  0  0  0  0  0  0
   -3.8498    1.7411   -0.4673 H   0  0  0  0  0  0  0  0  0  0  0  0
   -3.0358    4.0671   -0.7103 H   0  0  0  0  0  0  0  0  0  0  0  0
   -0.6144    4.5541   -0.6343 H   0  0  0  0  0  0  0  0  0  0  0  0
    1.0243    2.7420   -0.2977 H   0  0  0  0  0  0  0  0  0  0  0  0
    1.7951    1.5129    1.6071 H   0  0  0  0  0  0  0  0  0  0  0  0
    4.2350    1.2771    1.8244 H   0  0  0  0  0  0  0  0  0  0  0  0
  1  2  2  0
  2  3  1  0
  3  4  2  0
  4  5  1  0
  5  6  1  0
  6  7  2  0
  7  8  1  0
  8  9  2  0
  9 10  1  0
 10 11  2  0
 11 12  1  0
 12 13  2  0
 13 14  1  0
 14 15  2  0
 15 16  1  0
 16 17  2  0
  4 18  1  0
 18 19  2  0
 19  1  1  0
 17  5  1  0
 11  6  1  0
 17 12  1  0
  1 20  1  0
  2 21  1  0
  3 22  1  0
  7 23  1  0
  8 24  1  0
  9 25  1  0
 10 26  1  0
 13 27  1  0
 14 28  1  0
 15 29  1  0
 16 30  1  0
 18 31  1  0
 19 32  1  0
M  END
