
     RDKit          3D

 30 33  0  0  0  0  0  0  0  0999 V2000
   -4.3574   -0.9632   -1.1584 C   0  0  0  0  0  0  0  0  0  0  0  0
   -4.5724   -0.8830    0.2156 C   0  0  0  0  0  0  0  0  0  0  0  0
   -3.5655   -0.4021    1.0546 C   0  0  0  0  0  0  0  0  0  0  0  0
   -2.3257   -0.0167    0.5204 C   0  0  0  0  0  0  0  0  0  0  0  0
   -1.3249    0.4794    1.3931 N   0  0  0  0  0  0  0  0  0  0  0  0
   -1.6754    1.0639    2.5677 N   0  0  0  0  0  0  0  0  0  0  0  0
   -0.6154    1.7496    2.9666 N   0  0  0  0  0  0  0  0  0  0  0  0
    0.4536    1.5177    2.1477 N   0  0  0  0  0  0  0  0  0  0  0  0
    0.0425    0.6384    1.2559 C   0  0  0  0  0  0  0  0  0  0  0  0
    0.9126   -0.0673    0.4307 N   0  0  0  0  0  0  0  0  0  0  0  0
    0.6976   -1.2924   -0.1687 C   0  0  0  0  0  0  0  0  0  0  0  0
    1.7063   -1.6915   -0.9066 N   0  0  0  0  0  0  0  0  0  0  0  0
    2.6668   -0.7340   -0.7348 C   0  0  0  0  0  0  0  0  0  0  0  0
    3.9610   -0.6743   -1.2738 C   0  0  0  0  0  0  0  0  0  0  0  0
    4.7812    0.4111   -0.9481 C   0  0  0  0  0  0  0  0  0  0  0  0
    4.3213    1.4202   -0.1032 C   0  0  0  0  0  0  0  0  0  0  0  0
    3.0322    1.3795    0.4404 C   0  0  0  0  0  0  0  0  0  0  0  0
    2.2207    0.2819    0.1085 C   0  0  0  0  0  0  0  0  0  0  0  0
   -2.1280   -0.0668   -0.8663 C   0  0  0  0  0  0  0  0  0  0  0  0
   -3.1414   -0.5494   -1.6988 C   0  0  0  0  0  0  0  0  0  0  0  0
   -5.1444   -1.3344   -1.8108 H   0  0  0  0  0  0  0  0  0  0  0  0
   -5.5276   -1.1912    0.6348 H   0  0  0  0  0  0  0  0  0  0  0  0
   -3.7634   -0.3481    2.1245 H   0  0  0  0  0  0  0  0  0  0  0  0
   -0.2061   -1.8687   -0.0201 H   0  0  0  0  0  0  0  0  0  0  0  0
    4.3133   -1.4644   -1.9282 H   0  0  0  0  0  0  0  0  0  0  0  0
    5.7871    0.4651   -1.3578 H   0  0  0  0  0  0  0  0  0  0  0  0
    4.9749    2.2563    0.1388 H   0  0  0  0  0  0  0  0  0  0  0  0
    2.6852    2.1750    1.0936 H   0  0  0  0  0  0  0  0  0  0  0  0
   -1.2212    0.2987   -1.3419 H   0  0  0  0  0  0  0  0  0  0  0  0
   -2.9876   -0.5892   -2.7753 H   0  0  0  0  0  0  0  0  0  0  0  0
  1  2  2  0
  2  3  1  0
  3  4  2  0
  4  5  1  0
  5  6  1  0
  6  7  2  0
  7  8  1  0
  8  9  2  0
  9 10  1  0
 10 11  1  0
 11 12  2  0
 12 13  1  0
 13 14  2  0
 14 15  1  0
 15 16  2  0
 16 17  1  0
 17 18  2  0
  4 19  1  0
 19 20  2  0
 20  1  1  0
  9  5  1  0
 18 10  1  0
 18 13  1  0
  1 21  1  0
  2 22  1  0
  3 23  1  0
 11 24  1  0
 14 25  1  0
 15 26  1  0
 16 27  1  0
 17 28  1  0
 19 29  1  0
 20 30  1  0
M  END
