
     RDKit          3D

 44 49  0  0  0  0  0  0  0  0999 V2000
    7.2150    0.4989    0.4924 C   0  0  0  0  0  0  0  0  0  0  0  0
    6.6010    1.2049    1.5161 C   0  0  0  0  0  0  0  0  0  0  0  0
    5.2090    1.2802    1.5513 C   0  0  0  0  0  0  0  0  0  0  0  0
    4.4555    0.6430    0.5601 C   0  0  0  0  0  0  0  0  0  0  0  0
    5.0575   -0.0451   -0.4518 N   0  0  0  0  0  0  0  0  0  0  0  0
    6.4077   -0.0943   -0.4654 C   0  0  0  0  0  0  0  0  0  0  0  0
    2.9734    0.6668    0.5533 C   0  0  0  0  0  0  0  0  0  0  0  0
    2.2185   -0.1823   -0.2550 C   0  0  0  0  0  0  0  0  0  0  0  0
    0.7967   -0.1626   -0.2688 C   0  0  0  0  0  0  0  0  0  0  0  0
    0.0091   -1.0131   -1.1026 C   0  0  0  0  0  0  0  0  0  0  0  0
    0.6006   -1.9330   -2.0169 C   0  0  0  0  0  0  0  0  0  0  0  0
   -0.1387   -2.6912   -2.9190 C   0  0  0  0  0  0  0  0  0  0  0  0
   -1.5039   -2.5344   -2.9570 C   0  0  0  0  0  0  0  0  0  0  0  0
   -2.1136   -1.6647   -2.0495 C   0  0  0  0  0  0  0  0  0  0  0  0
   -1.4112   -0.9327   -1.0544 C   0  0  0  0  0  0  0  0  0  0  0  0
   -2.0808   -0.0704   -0.1006 C   0  0  0  0  0  0  0  0  0  0  0  0
   -3.5159   -0.0813    0.2058 C   0  0  0  0  0  0  0  0  0  0  0  0
   -4.4000   -1.1682   -0.0419 C   0  0  0  0  0  0  0  0  0  0  0  0
   -5.7796   -1.1036    0.1868 C   0  0  0  0  0  0  0  0  0  0  0  0
   -6.3381    0.0519    0.7010 C   0  0  0  0  0  0  0  0  0  0  0  0
   -5.5037    1.1049    1.0561 C   0  0  0  0  0  0  0  0  0  0  0  0
   -4.1125    1.0279    0.8567 C   0  0  0  0  0  0  0  0  0  0  0  0
   -3.3082    2.0538    1.3420 C   0  0  0  0  0  0  0  0  0  0  0  0
   -1.9248    1.9470    1.2575 C   0  0  0  0  0  0  0  0  0  0  0  0
   -1.2749    0.8840    0.5797 C   0  0  0  0  0  0  0  0  0  0  0  0
    0.1561    0.7829    0.5547 C   0  0  0  0  0  0  0  0  0  0  0  0
    1.0119    1.5784    1.3479 C   0  0  0  0  0  0  0  0  0  0  0  0
    2.3671    1.5444    1.3760 N   0  0  0  0  0  0  0  0  0  0  0  0
    8.2947    0.4205    0.4328 H   0  0  0  0  0  0  0  0  0  0  0  0
    7.1947    1.6923    2.2835 H   0  0  0  0  0  0  0  0  0  0  0  0
    4.7185    1.8280    2.3502 H   0  0  0  0  0  0  0  0  0  0  0  0
    6.8374   -0.6514   -1.2958 H   0  0  0  0  0  0  0  0  0  0  0  0
    2.7722   -0.8649   -0.8841 H   0  0  0  0  0  0  0  0  0  0  0  0
    1.6779   -2.0658   -2.0695 H   0  0  0  0  0  0  0  0  0  0  0  0
    0.3619   -3.3634   -3.6102 H   0  0  0  0  0  0  0  0  0  0  0  0
   -2.1007   -3.0662   -3.6921 H   0  0  0  0  0  0  0  0  0  0  0  0
   -3.1810   -1.5191   -2.1926 H   0  0  0  0  0  0  0  0  0  0  0  0
   -4.0089   -2.1292   -0.3692 H   0  0  0  0  0  0  0  0  0  0  0  0
   -6.4039   -1.9603   -0.0313 H   0  0  0  0  0  0  0  0  0  0  0  0
   -7.4092    0.1198    0.8710 H   0  0  0  0  0  0  0  0  0  0  0  0
   -5.9464    1.9898    1.5112 H   0  0  0  0  0  0  0  0  0  0  0  0
   -3.7371    2.9206    1.8383 H   0  0  0  0  0  0  0  0  0  0  0  0
   -1.3626    2.7617    1.7057 H   0  0  0  0  0  0  0  0  0  0  0  0
    0.6189    2.2960    2.0578 H   0  0  0  0  0  0  0  0  0  0  0  0
  1  2  2  0
  2  3  1  0
  3  4  2  0
  4  5  1  0
  5  6  2  0
  4  7  1  0
  7  8  2  0
  8  9  1  0
  9 10  2  0
 10 11  1  0
 11 12  2  0
 12 13  1  0
 13 14  2  0
 14 15  1  0
 15 16  2  0
 16 17  1  0
 17 18  2  0
 18 19  1  0
 19 20  2  0
 20 21  1  0
 21 22  2  0
 22 23  1  0
 23 24  2  0
 24 25  1  0
 25 26  2  0
 26 27  1  0
 27 28  2  0
  6  1  1  0
 28  7  1  0
 26  9  1  0
 15 10  1  0
 25 16  1  0
 22 17  1  0
  1 29  1  0
  2 30  1  0
  3 31  1  0
  6 32  1  0
  8 33  1  0
 11 34  1  0
 12 35  1  0
 13 36  1  0
 14 37  1  0
 18 38  1  0
 19 39  1  0
 20 40  1  0
 21 41  1  0
 23 42  1  0
 24 43  1  0
 27 44  1  0
M  END
