
     RDKit          3D

 34 39  0  0  0  0  0  0  0  0999 V2000
    6.5728   -0.0906   -0.7617 C   0  0  0  0  0  0  0  0  0  0  0  0
    6.2643    0.4054    0.4967 C   0  0  0  0  0  0  0  0  0  0  0  0
    4.9286    0.5013    0.8837 C   0  0  0  0  0  0  0  0  0  0  0  0
    3.9224    0.0981    0.0022 C   0  0  0  0  0  0  0  0  0  0  0  0
    4.2249   -0.3892   -1.2339 N   0  0  0  0  0  0  0  0  0  0  0  0
    5.5281   -0.4714   -1.5835 C   0  0  0  0  0  0  0  0  0  0  0  0
    2.4811    0.1753    0.3552 C   0  0  0  0  0  0  0  0  0  0  0  0
    1.4913   -0.2326   -0.5397 C   0  0  0  0  0  0  0  0  0  0  0  0
    0.1855   -0.1084   -0.0862 C   0  0  0  0  0  0  0  0  0  0  0  0
   -0.9214   -0.4535   -0.8131 O   0  0  0  0  0  0  0  0  0  0  0  0
   -1.9677   -0.1709    0.0020 C   0  0  0  0  0  0  0  0  0  0  0  0
   -1.5417    0.3302    1.1902 C   0  0  0  0  0  0  0  0  0  0  0  0
   -2.6530    0.5964    1.9721 N   0  0  0  0  0  0  0  0  0  0  0  0
   -3.7922    0.2538    1.2553 C   0  0  0  0  0  0  0  0  0  0  0  0
   -5.1608    0.3168    1.5648 C   0  0  0  0  0  0  0  0  0  0  0  0
   -6.1016   -0.1170    0.6004 C   0  0  0  0  0  0  0  0  0  0  0  0
   -5.6179   -0.6008   -0.6475 C   0  0  0  0  0  0  0  0  0  0  0  0
   -6.3661   -1.0510   -1.6739 N   0  0  0  0  0  0  0  0  0  0  0  0
   -5.2925   -1.4943   -2.8885 S   0  0  0  0  0  0  0  0  0  0  0  0
   -3.8231   -1.1325   -2.1614 N   0  0  0  0  0  0  0  0  0  0  0  0
   -4.2021   -0.6722   -0.9830 C   0  0  0  0  0  0  0  0  0  0  0  0
   -3.3443   -0.2184    0.0398 C   0  0  0  0  0  0  0  0  0  0  0  0
   -0.1313    0.3872    1.1722 C   0  0  0  0  0  0  0  0  0  0  0  0
    0.8999    0.7761    2.0155 C   0  0  0  0  0  0  0  0  0  0  0  0
    2.1876    0.6663    1.5995 N   0  0  0  0  0  0  0  0  0  0  0  0
    7.6008   -0.1784   -1.0941 H   0  0  0  0  0  0  0  0  0  0  0  0
    7.0530    0.7165    1.1755 H   0  0  0  0  0  0  0  0  0  0  0  0
    4.6781    0.8884    1.8670 H   0  0  0  0  0  0  0  0  0  0  0  0
    5.7148   -0.8661   -2.5783 H   0  0  0  0  0  0  0  0  0  0  0  0
    1.7142   -0.6217   -1.5247 H   0  0  0  0  0  0  0  0  0  0  0  0
   -2.6083    0.9780    2.9085 H   0  0  0  0  0  0  0  0  0  0  0  0
   -5.5030    0.6909    2.5264 H   0  0  0  0  0  0  0  0  0  0  0  0
   -7.1674   -0.0848    0.7999 H   0  0  0  0  0  0  0  0  0  0  0  0
    0.7469    1.1730    3.0119 H   0  0  0  0  0  0  0  0  0  0  0  0
  1  2  2  0
  2  3  1  0
  3  4  2  0
  4  5  1  0
  5  6  2  0
  4  7  1  0
  7  8  2  0
  8  9  1  0
  9 10  1  0
 10 11  1  0
 11 12  2  0
 12 13  1  0
 13 14  1  0
 14 15  1  0
 15 16  2  0
 16 17  1  0
 17 18  2  0
 18 19  1  0
 19 20  1  0
 20 21  2  0
 21 22  1  0
 12 23  1  0
 23 24  1  0
 24 25  2  0
  6  1  1  0
 25  7  1  0
 23  9  2  0
 22 11  1  0
 22 14  2  0
 21 17  1  0
  1 26  1  0
  2 27  1  0
  3 28  1  0
  6 29  1  0
  8 30  1  0
 13 31  1  0
 15 32  1  0
 16 33  1  0
 24 34  1  0
M  END
