
     RDKit          3D

 26 28  0  0  0  0  0  0  0  0999 V2000
   -4.6425   -0.3642   -0.6375 C   0  0  0  0  0  0  0  0  0  0  0  0
   -3.4447   -0.6057   -1.3027 C   0  0  0  0  0  0  0  0  0  0  0  0
   -2.2224   -0.3331   -0.6769 C   0  0  0  0  0  0  0  0  0  0  0  0
   -2.1709    0.1846    0.6219 C   0  0  0  0  0  0  0  0  0  0  0  0
   -0.9803    0.4817    1.3109 N   0  0  0  0  0  0  0  0  0  0  0  0
    0.3076    0.3482    0.9130 C   0  0  0  0  0  0  0  0  0  0  0  0
    0.7529   -0.1010   -0.2377 N   0  0  0  0  0  0  0  0  0  0  0  0
    2.1351   -0.0892   -0.2752 C   0  0  0  0  0  0  0  0  0  0  0  0
    2.9366   -0.5046   -1.3580 C   0  0  0  0  0  0  0  0  0  0  0  0
    4.3302   -0.4379   -1.2581 C   0  0  0  0  0  0  0  0  0  0  0  0
    4.9307    0.0360   -0.0960 C   0  0  0  0  0  0  0  0  0  0  0  0
    4.1570    0.4538    0.9915 C   0  0  0  0  0  0  0  0  0  0  0  0
    2.7584    0.3818    0.8784 C   0  0  0  0  0  0  0  0  0  0  0  0
    1.5517    0.8134    2.0219 S   0  0  0  0  0  0  0  0  0  0  0  0
   -3.3944    0.4206    1.2746 C   0  0  0  0  0  0  0  0  0  0  0  0
   -4.6181    0.1501    0.6539 C   0  0  0  0  0  0  0  0  0  0  0  0
   -5.5899   -0.5764   -1.1251 H   0  0  0  0  0  0  0  0  0  0  0  0
   -3.4530   -1.0076   -2.3125 H   0  0  0  0  0  0  0  0  0  0  0  0
   -1.3138   -0.5376   -1.2350 H   0  0  0  0  0  0  0  0  0  0  0  0
   -1.1231    0.8494    2.2421 H   0  0  0  0  0  0  0  0  0  0  0  0
    2.4627   -0.8734   -2.2622 H   0  0  0  0  0  0  0  0  0  0  0  0
    4.9447   -0.7593   -2.0958 H   0  0  0  0  0  0  0  0  0  0  0  0
    6.0159    0.0829   -0.0309 H   0  0  0  0  0  0  0  0  0  0  0  0
    4.6266    0.8234    1.8979 H   0  0  0  0  0  0  0  0  0  0  0  0
   -3.4086    0.8223    2.2848 H   0  0  0  0  0  0  0  0  0  0  0  0
   -5.5488    0.3418    1.1810 H   0  0  0  0  0  0  0  0  0  0  0  0
  1  2  2  0
  2  3  1  0
  3  4  2  0
  4  5  1  0
  5  6  1  0
  6  7  2  0
  7  8  1  0
  8  9  2  0
  9 10  1  0
 10 11  2  0
 11 12  1  0
 12 13  2  0
 13 14  1  0
  4 15  1  0
 15 16  2  0
 16  1  1  0
 14  6  1  0
 13  8  1  0
  1 17  1  0
  2 18  1  0
  3 19  1  0
  5 20  1  0
  9 21  1  0
 10 22  1  0
 11 23  1  0
 12 24  1  0
 15 25  1  0
 16 26  1  0
M  END
