
     RDKit          3D

 34 37  0  0  0  0  0  0  0  0999 V2000
    6.1575    0.7420   -0.7456 C   0  0  0  0  0  0  0  0  0  0  0  0
    5.3302    1.3989    0.1669 C   0  0  0  0  0  0  0  0  0  0  0  0
    3.9506    1.1942    0.1309 C   0  0  0  0  0  0  0  0  0  0  0  0
    3.4068    0.3175   -0.8101 C   0  0  0  0  0  0  0  0  0  0  0  0
    2.0500    0.1357   -0.9154 O   0  0  0  0  0  0  0  0  0  0  0  0
    1.4163   -0.4880    0.1522 C   0  0  0  0  0  0  0  0  0  0  0  0
    2.1265   -1.1736    1.0795 N   0  0  0  0  0  0  0  0  0  0  0  0
    1.4507   -1.7775    2.0733 C   0  0  0  0  0  0  0  0  0  0  0  0
    0.1266   -1.7985    2.2741 N   0  0  0  0  0  0  0  0  0  0  0  0
   -0.5251   -1.1180    1.3216 C   0  0  0  0  0  0  0  0  0  0  0  0
   -1.8802   -0.9947    1.2914 O   0  0  0  0  0  0  0  0  0  0  0  0
   -2.2081   -0.2473    0.1929 C   0  0  0  0  0  0  0  0  0  0  0  0
   -3.6331    0.0004   -0.0196 C   0  0  0  0  0  0  0  0  0  0  0  0
   -4.0711    0.7580   -1.1168 C   0  0  0  0  0  0  0  0  0  0  0  0
   -5.4328    0.9988   -1.3261 C   0  0  0  0  0  0  0  0  0  0  0  0
   -6.3770    0.4855   -0.4410 C   0  0  0  0  0  0  0  0  0  0  0  0
   -5.9614   -0.2683    0.6530 C   0  0  0  0  0  0  0  0  0  0  0  0
   -4.6001   -0.5085    0.8614 C   0  0  0  0  0  0  0  0  0  0  0  0
   -1.0544    0.1090   -0.4807 C   0  0  0  0  0  0  0  0  0  0  0  0
    0.0293   -0.4489    0.2447 C   0  0  0  0  0  0  0  0  0  0  0  0
    4.2280   -0.3234   -1.7373 C   0  0  0  0  0  0  0  0  0  0  0  0
    5.6071   -0.1164   -1.6988 C   0  0  0  0  0  0  0  0  0  0  0  0
    7.2324    0.9019   -0.7158 H   0  0  0  0  0  0  0  0  0  0  0  0
    5.7601    2.0713    0.9045 H   0  0  0  0  0  0  0  0  0  0  0  0
    3.3079    1.7126    0.8359 H   0  0  0  0  0  0  0  0  0  0  0  0
    2.0534   -2.3137    2.8008 H   0  0  0  0  0  0  0  0  0  0  0  0
   -3.3603    1.1730   -1.8266 H   0  0  0  0  0  0  0  0  0  0  0  0
   -5.7546    1.5878   -2.1813 H   0  0  0  0  0  0  0  0  0  0  0  0
   -7.4354    0.6723   -0.6031 H   0  0  0  0  0  0  0  0  0  0  0  0
   -6.6942   -0.6717    1.3474 H   0  0  0  0  0  0  0  0  0  0  0  0
   -4.3024   -1.1011    1.7245 H   0  0  0  0  0  0  0  0  0  0  0  0
   -0.9927    0.6993   -1.3838 H   0  0  0  0  0  0  0  0  0  0  0  0
    3.7972   -0.9861   -2.4819 H   0  0  0  0  0  0  0  0  0  0  0  0
    6.2524   -0.6224   -2.4120 H   0  0  0  0  0  0  0  0  0  0  0  0
  1  2  2  0
  2  3  1  0
  3  4  2  0
  4  5  1  0
  5  6  1  0
  6  7  2  0
  7  8  1  0
  8  9  2  0
  9 10  1  0
 10 11  1  0
 11 12  1  0
 12 13  1  0
 13 14  2  0
 14 15  1  0
 15 16  2  0
 16 17  1  0
 17 18  2  0
 12 19  2  0
 19 20  1  0
  4 21  1  0
 21 22  2  0
 22  1  1  0
 20  6  1  0
 20 10  2  0
 18 13  1  0
  1 23  1  0
  2 24  1  0
  3 25  1  0
  8 26  1  0
 14 27  1  0
 15 28  1  0
 16 29  1  0
 17 30  1  0
 18 31  1  0
 19 32  1  0
 21 33  1  0
 22 34  1  0
M  END
