
     RDKit          3D

 34 38  0  0  0  0  0  0  0  0999 V2000
    6.1791    0.1086    1.1959 C   0  0  0  0  0  0  0  0  0  0  0  0
    6.1009   -0.8752    0.2121 C   0  0  0  0  0  0  0  0  0  0  0  0
    4.8749   -1.2241   -0.3632 C   0  0  0  0  0  0  0  0  0  0  0  0
    3.7346   -0.5483    0.0872 C   0  0  0  0  0  0  0  0  0  0  0  0
    2.4167   -0.6770   -0.2884 N   0  0  0  0  0  0  0  0  0  0  0  0
    1.6070    0.1905    0.4132 C   0  0  0  0  0  0  0  0  0  0  0  0
    0.1547    0.2971    0.2439 C   0  0  0  0  0  0  0  0  0  0  0  0
   -0.5641   -0.4821   -0.6595 C   0  0  0  0  0  0  0  0  0  0  0  0
   -1.9418   -0.2523   -0.6933 C   0  0  0  0  0  0  0  0  0  0  0  0
   -2.9279   -0.8354   -1.4540 N   0  0  0  0  0  0  0  0  0  0  0  0
   -4.1570   -0.2968   -1.1555 C   0  0  0  0  0  0  0  0  0  0  0  0
   -5.4199   -0.5790   -1.6720 C   0  0  0  0  0  0  0  0  0  0  0  0
   -6.4541    0.1691   -1.1304 C   0  0  0  0  0  0  0  0  0  0  0  0
   -6.3097    1.1122   -0.1741 N   0  0  0  0  0  0  0  0  0  0  0  0
   -5.0701    1.3686    0.3127 C   0  0  0  0  0  0  0  0  0  0  0  0
   -3.9566    0.6675   -0.1677 C   0  0  0  0  0  0  0  0  0  0  0  0
   -2.5569    0.6945    0.1233 C   0  0  0  0  0  0  0  0  0  0  0  0
   -1.7548    1.4310    1.0003 C   0  0  0  0  0  0  0  0  0  0  0  0
   -0.4161    1.2241    1.0493 N   0  0  0  0  0  0  0  0  0  0  0  0
    2.4518    0.8906    1.2624 C   0  0  0  0  0  0  0  0  0  0  0  0
    3.7832    0.4378    1.0678 C   0  0  0  0  0  0  0  0  0  0  0  0
    5.0277    0.7735    1.6334 C   0  0  0  0  0  0  0  0  0  0  0  0
    7.1425    0.3645    1.6299 H   0  0  0  0  0  0  0  0  0  0  0  0
    7.0075   -1.3799   -0.1139 H   0  0  0  0  0  0  0  0  0  0  0  0
    4.8184   -1.9904   -1.1288 H   0  0  0  0  0  0  0  0  0  0  0  0
    2.1018   -1.3286   -0.9898 H   0  0  0  0  0  0  0  0  0  0  0  0
   -0.1034   -1.2202   -1.2996 H   0  0  0  0  0  0  0  0  0  0  0  0
   -2.7729   -1.5609   -2.1394 H   0  0  0  0  0  0  0  0  0  0  0  0
   -5.5918   -1.3236   -2.4380 H   0  0  0  0  0  0  0  0  0  0  0  0
   -7.4763    0.0204   -1.4700 H   0  0  0  0  0  0  0  0  0  0  0  0
   -5.0045    2.1332    1.0783 H   0  0  0  0  0  0  0  0  0  0  0  0
   -2.1463    2.1871    1.6712 H   0  0  0  0  0  0  0  0  0  0  0  0
    2.1291    1.6569    1.9563 H   0  0  0  0  0  0  0  0  0  0  0  0
    5.0943    1.5392    2.4004 H   0  0  0  0  0  0  0  0  0  0  0  0
  1  2  2  0
  2  3  1  0
  3  4  2  0
  4  5  1  0
  5  6  1  0
  6  7  1  0
  7  8  2  0
  8  9  1  0
  9 10  1  0
 10 11  1  0
 11 12  2  0
 12 13  1  0
 13 14  2  0
 14 15  1  0
 15 16  2  0
 16 17  1  0
 17 18  1  0
 18 19  2  0
  6 20  2  0
 20 21  1  0
 21 22  2  0
 22  1  1  0
 21  4  1  0
 19  7  1  0
 17  9  2  0
 16 11  1  0
  1 23  1  0
  2 24  1  0
  3 25  1  0
  5 26  1  0
  8 27  1  0
 10 28  1  0
 12 29  1  0
 13 30  1  0
 15 31  1  0
 18 32  1  0
 20 33  1  0
 22 34  1  0
M  END
