
     RDKit          3D

 35 39  0  0  0  0  0  0  0  0999 V2000
    6.4559   -0.0533    0.7564 C   0  0  0  0  0  0  0  0  0  0  0  0
    6.2795    1.1761    0.1244 C   0  0  0  0  0  0  0  0  0  0  0  0
    5.0052    1.6251   -0.2359 C   0  0  0  0  0  0  0  0  0  0  0  0
    3.9195    0.7936    0.0627 C   0  0  0  0  0  0  0  0  0  0  0  0
    2.5748    0.9687   -0.1685 N   0  0  0  0  0  0  0  0  0  0  0  0
    1.8354   -0.1052    0.2881 C   0  0  0  0  0  0  0  0  0  0  0  0
    0.3679   -0.2000    0.1784 C   0  0  0  0  0  0  0  0  0  0  0  0
   -0.3023   -1.3233    0.6670 C   0  0  0  0  0  0  0  0  0  0  0  0
   -1.6964   -1.4438    0.5779 C   0  0  0  0  0  0  0  0  0  0  0  0
   -2.4747   -0.4213   -0.0153 C   0  0  0  0  0  0  0  0  0  0  0  0
   -1.8010    0.6965   -0.5008 C   0  0  0  0  0  0  0  0  0  0  0  0
   -0.3950    0.8203   -0.4121 C   0  0  0  0  0  0  0  0  0  0  0  0
   -2.8867    1.8358   -1.1852 S   0  0  0  0  0  0  0  0  0  0  0  0
   -4.2632    0.8691   -0.8502 C   0  0  0  0  0  0  0  0  0  0  0  0
   -5.6053    1.1796   -1.1487 C   0  0  0  0  0  0  0  0  0  0  0  0
   -6.6060    0.2701   -0.8021 C   0  0  0  0  0  0  0  0  0  0  0  0
   -6.2840   -0.9227   -0.1727 C   0  0  0  0  0  0  0  0  0  0  0  0
   -4.9510   -1.2255    0.1209 C   0  0  0  0  0  0  0  0  0  0  0  0
   -3.9084   -0.3230   -0.2177 C   0  0  0  0  0  0  0  0  0  0  0  0
    2.7620   -0.9877    0.8274 C   0  0  0  0  0  0  0  0  0  0  0  0
    4.0655   -0.4369    0.6921 C   0  0  0  0  0  0  0  0  0  0  0  0
    5.3571   -0.8706    1.0466 C   0  0  0  0  0  0  0  0  0  0  0  0
    7.4557   -0.3829    1.0278 H   0  0  0  0  0  0  0  0  0  0  0  0
    7.1459    1.7968   -0.0926 H   0  0  0  0  0  0  0  0  0  0  0  0
    4.8710    2.5827   -0.7279 H   0  0  0  0  0  0  0  0  0  0  0  0
    2.1936    1.7868   -0.6173 H   0  0  0  0  0  0  0  0  0  0  0  0
    0.2454   -2.1390    1.1324 H   0  0  0  0  0  0  0  0  0  0  0  0
   -2.1775   -2.3358    0.9714 H   0  0  0  0  0  0  0  0  0  0  0  0
    0.0667    1.7170   -0.8100 H   0  0  0  0  0  0  0  0  0  0  0  0
   -5.8600    2.1137   -1.6418 H   0  0  0  0  0  0  0  0  0  0  0  0
   -7.6443    0.5011   -1.0284 H   0  0  0  0  0  0  0  0  0  0  0  0
   -7.0686   -1.6264    0.0943 H   0  0  0  0  0  0  0  0  0  0  0  0
   -4.7156   -2.1650    0.6147 H   0  0  0  0  0  0  0  0  0  0  0  0
    2.5372   -1.9437    1.2802 H   0  0  0  0  0  0  0  0  0  0  0  0
    5.5017   -1.8272    1.5392 H   0  0  0  0  0  0  0  0  0  0  0  0
  1  2  2  0
  2  3  1  0
  3  4  2  0
  4  5  1  0
  5  6  1  0
  6  7  1  0
  7  8  2  0
  8  9  1  0
  9 10  2  0
 10 11  1  0
 11 12  2  0
 11 13  1  0
 13 14  1  0
 14 15  2  0
 15 16  1  0
 16 17  2  0
 17 18  1  0
 18 19  2  0
  6 20  2  0
 20 21  1  0
 21 22  2  0
 22  1  1  0
 21  4  1  0
 12  7  1  0
 19 14  1  0
 19 10  1  0
  1 23  1  0
  2 24  1  0
  3 25  1  0
  5 26  1  0
  8 27  1  0
  9 28  1  0
 12 29  1  0
 15 30  1  0
 16 31  1  0
 17 32  1  0
 18 33  1  0
 20 34  1  0
 22 35  1  0
M  END
