
     RDKit          3D

 30 33  0  0  0  0  0  0  0  0999 V2000
   -5.2774    0.7168   -0.0623 C   0  0  0  0  0  0  0  0  0  0  0  0
   -5.0737    0.0045    1.1180 C   0  0  0  0  0  0  0  0  0  0  0  0
   -3.7905   -0.3889    1.5102 C   0  0  0  0  0  0  0  0  0  0  0  0
   -2.7242   -0.0399    0.6731 C   0  0  0  0  0  0  0  0  0  0  0  0
   -1.3768   -0.2869    0.7991 N   0  0  0  0  0  0  0  0  0  0  0  0
   -0.6627    0.2372   -0.2611 C   0  0  0  0  0  0  0  0  0  0  0  0
    0.7994    0.1295   -0.4002 C   0  0  0  0  0  0  0  0  0  0  0  0
    1.4499    0.6876   -1.5051 C   0  0  0  0  0  0  0  0  0  0  0  0
    2.8383    0.5898   -1.6448 C   0  0  0  0  0  0  0  0  0  0  0  0
    3.6132   -0.0602   -0.6982 C   0  0  0  0  0  0  0  0  0  0  0  0
    4.9489   -0.1359   -0.8644 N   0  0  0  0  0  0  0  0  0  0  0  0
    5.6366   -0.7845    0.0993 C   0  0  0  0  0  0  0  0  0  0  0  0
    5.0152   -1.3423    1.1971 C   0  0  0  0  0  0  0  0  0  0  0  0
    3.6786   -1.2761    1.3799 N   0  0  0  0  0  0  0  0  0  0  0  0
    2.9741   -0.6318    0.4274 C   0  0  0  0  0  0  0  0  0  0  0  0
    1.5916   -0.5269    0.5536 C   0  0  0  0  0  0  0  0  0  0  0  0
   -1.6077    0.8366   -1.0828 C   0  0  0  0  0  0  0  0  0  0  0  0
   -2.8976    0.6697   -0.5093 C   0  0  0  0  0  0  0  0  0  0  0  0
   -4.1978    1.0563   -0.8861 C   0  0  0  0  0  0  0  0  0  0  0  0
   -6.2837    1.0126   -0.3481 H   0  0  0  0  0  0  0  0  0  0  0  0
   -5.9255   -0.2499    1.7447 H   0  0  0  0  0  0  0  0  0  0  0  0
   -3.6351   -0.9434    2.4297 H   0  0  0  0  0  0  0  0  0  0  0  0
   -0.9782   -0.7903    1.5767 H   0  0  0  0  0  0  0  0  0  0  0  0
    0.8935    1.2093   -2.2795 H   0  0  0  0  0  0  0  0  0  0  0  0
    3.3236    1.0310   -2.5119 H   0  0  0  0  0  0  0  0  0  0  0  0
    6.7100   -0.8430   -0.0382 H   0  0  0  0  0  0  0  0  0  0  0  0
    5.5765   -1.8612    1.9655 H   0  0  0  0  0  0  0  0  0  0  0  0
    1.1500   -0.9818    1.4346 H   0  0  0  0  0  0  0  0  0  0  0  0
   -1.4047    1.3508   -2.0125 H   0  0  0  0  0  0  0  0  0  0  0  0
   -4.3639    1.6114   -1.8043 H   0  0  0  0  0  0  0  0  0  0  0  0
  1  2  2  0
  2  3  1  0
  3  4  2  0
  4  5  1  0
  5  6  1  0
  6  7  1  0
  7  8  2  0
  8  9  1  0
  9 10  2  0
 10 11  1  0
 11 12  2  0
 12 13  1  0
 13 14  2  0
 14 15  1  0
 15 16  2  0
  6 17  2  0
 17 18  1  0
 18 19  2  0
 19  1  1  0
 18  4  1  0
 16  7  1  0
 15 10  1  0
  1 20  1  0
  2 21  1  0
  3 22  1  0
  5 23  1  0
  8 24  1  0
  9 25  1  0
 12 26  1  0
 13 27  1  0
 16 28  1  0
 17 29  1  0
 19 30  1  0
M  END
