
     RDKit          3D

 46 53  0  0  0  0  0  0  0  0999 V2000
   -2.4410    4.1236    1.2638 Si  0  0  0  0  0  4  0  0  0  0  0  0
   -3.7887    3.0064    0.6448 C   0  0  0  0  0  0  0  0  0  0  0  0
   -3.2985    1.7973    0.3082 C   0  0  0  0  0  0  0  0  0  0  0  0
   -4.0700    0.6407   -0.0038 C   0  0  0  0  0  0  0  0  0  0  0  0
   -5.4448    0.4643   -0.2623 C   0  0  0  0  0  0  0  0  0  0  0  0
   -5.6253   -0.8766   -0.5264 C   0  0  0  0  0  0  0  0  0  0  0  0
   -4.4035   -1.5000   -0.4326 N   0  0  0  0  0  0  0  0  0  0  0  0
   -3.4452   -0.5936   -0.0581 C   0  0  0  0  0  0  0  0  0  0  0  0
   -2.0087   -0.7959    0.0906 C   0  0  0  0  0  0  0  0  0  0  0  0
   -1.3335   -2.0165    0.1821 C   0  0  0  0  0  0  0  0  0  0  0  0
   -1.8644   -3.2754    0.3464 C   0  0  0  0  0  0  0  0  0  0  0  0
   -0.8152   -4.1656    0.4157 N   0  0  0  0  0  0  0  0  0  0  0  0
    0.3803   -3.4940    0.3170 C   0  0  0  0  0  0  0  0  0  0  0  0
    0.0938   -2.1541    0.1904 C   0  0  0  0  0  0  0  0  0  0  0  0
    1.0294   -1.1017    0.0483 C   0  0  0  0  0  0  0  0  0  0  0  0
    2.4690   -1.3170   -0.0041 C   0  0  0  0  0  0  0  0  0  0  0  0
    3.4115   -0.2949   -0.2300 C   0  0  0  0  0  0  0  0  0  0  0  0
    4.8428   -0.5340   -0.2912 C   0  0  0  0  0  0  0  0  0  0  0  0
    5.3944   -1.5602   -0.9102 N   0  0  0  0  0  0  0  0  0  0  0  0
    6.7647   -1.5335   -0.7448 C   0  0  0  0  0  0  0  0  0  0  0  0
    7.2493   -0.5040    0.0299 C   0  0  0  0  0  0  0  0  0  0  0  0
    5.9483    0.4648    0.5777 S   0  0  0  0  0  0  0  0  0  0  0  0
    2.7632    0.9118   -0.4889 C   0  0  0  0  0  0  0  0  0  0  0  0
    3.3240    2.0789   -0.9459 C   0  0  0  0  0  0  0  0  0  0  0  0
    2.3471    2.9911   -1.2089 O   0  0  0  0  0  0  0  0  0  0  0  0
    1.1514    2.3993   -0.9289 C   0  0  0  0  0  0  0  0  0  0  0  0
    1.3419    1.1377   -0.4167 C   0  0  0  0  0  0  0  0  0  0  0  0
    0.3380    0.1842   -0.0605 C   0  0  0  0  0  0  0  0  0  0  0  0
   -1.1221    0.3388    0.1136 C   0  0  0  0  0  0  0  0  0  0  0  0
   -1.8124    1.6482    0.4218 C   0  0  0  0  0  0  0  0  0  0  0  0
   -1.2337    2.7173    1.0129 C   0  0  0  0  0  0  0  0  0  0  0  0
   -2.6028    4.4817    2.6935 H   0  0  0  0  0  0  0  0  0  0  0  0
   -2.1735    5.2585    0.3478 H   0  0  0  0  0  0  0  0  0  0  0  0
   -4.8259    3.2980    0.6792 H   0  0  0  0  0  0  0  0  0  0  0  0
   -6.2163    1.2221   -0.2774 H   0  0  0  0  0  0  0  0  0  0  0  0
   -6.5104   -1.4379   -0.7929 H   0  0  0  0  0  0  0  0  0  0  0  0
   -4.2366   -2.4715   -0.6479 H   0  0  0  0  0  0  0  0  0  0  0  0
   -2.8726   -3.6433    0.4580 H   0  0  0  0  0  0  0  0  0  0  0  0
   -0.9089   -5.1658    0.5393 H   0  0  0  0  0  0  0  0  0  0  0  0
    1.3112   -4.0428    0.3533 H   0  0  0  0  0  0  0  0  0  0  0  0
    2.8518   -2.3301    0.1218 H   0  0  0  0  0  0  0  0  0  0  0  0
    7.3691   -2.3015   -1.2120 H   0  0  0  0  0  0  0  0  0  0  0  0
    8.2727   -0.2871    0.2993 H   0  0  0  0  0  0  0  0  0  0  0  0
    4.3268    2.4075   -1.1799 H   0  0  0  0  0  0  0  0  0  0  0  0
    0.2870    2.9987   -1.1750 H   0  0  0  0  0  0  0  0  0  0  0  0
   -0.2140    2.8260    1.3433 H   0  0  0  0  0  0  0  0  0  0  0  0
  1  2  1  0
  2  3  2  0
  3  4  1  0
  4  5  1  0
  5  6  2  0
  6  7  1  0
  7  8  1  0
  8  9  1  0
  9 10  1  0
 10 11  2  0
 11 12  1  0
 12 13  1  0
 13 14  2  0
 14 15  1  0
 15 16  1  0
 16 17  2  0
 17 18  1  0
 18 19  2  0
 19 20  1  0
 20 21  2  0
 21 22  1  0
 17 23  1  0
 23 24  2  0
 24 25  1  0
 25 26  1  0
 26 27  2  0
 27 28  1  0
 28 29  1  0
 29 30  1  0
 30 31  2  0
 31  1  1  0
 30  3  1  0
  8  4  2  0
 29  9  2  0
 14 10  1  0
 28 15  2  0
 22 18  1  0
 27 23  1  0
  1 32  1  0
  1 33  1  0
  2 34  1  0
  5 35  1  0
  6 36  1  0
  7 37  1  0
 11 38  1  0
 12 39  1  0
 13 40  1  0
 16 41  1  0
 20 42  1  0
 21 43  1  0
 24 44  1  0
 26 45  1  0
 31 46  1  0
M  END
