
     RDKit          3D

 22 24  0  0  0  0  0  0  0  0999 V2000
   -3.5384   -0.7118    0.2723 C   0  0  0  0  0  0  0  0  0  0  0  0
   -3.5377    0.6445   -0.0471 C   0  0  0  0  0  0  0  0  0  0  0  0
   -2.3404    1.3367   -0.2529 C   0  0  0  0  0  0  0  0  0  0  0  0
   -1.1472    0.6160   -0.1259 C   0  0  0  0  0  0  0  0  0  0  0  0
    0.1594    1.0257   -0.2691 N   0  0  0  0  0  0  0  0  0  0  0  0
    1.0139   -0.0231   -0.0527 C   0  0  0  0  0  0  0  0  0  0  0  0
    2.5537    0.0546   -0.1260 C   0  0  0  0  0  0  0  0  0  0  0  0
    3.3797    1.1547   -0.4146 C   0  0  0  0  0  0  0  0  0  0  0  0
    4.6755    0.8296   -0.3844 N   0  0  0  0  0  0  0  0  0  0  0  0
    4.7040   -0.5217   -0.0672 O   0  0  0  0  0  0  0  0  0  0  0  0
    3.4326   -0.9746    0.0849 C   0  0  0  0  0  0  0  0  0  0  0  0
    0.2506   -1.1327    0.2359 C   0  0  0  0  0  0  0  0  0  0  0  0
   -1.1172   -0.7415    0.1927 C   0  0  0  0  0  0  0  0  0  0  0  0
   -2.3357   -1.4173    0.3954 C   0  0  0  0  0  0  0  0  0  0  0  0
   -4.4818   -1.2295    0.4279 H   0  0  0  0  0  0  0  0  0  0  0  0
   -4.4835    1.1742   -0.1380 H   0  0  0  0  0  0  0  0  0  0  0  0
   -2.3450    2.3929   -0.5015 H   0  0  0  0  0  0  0  0  0  0  0  0
    0.4363    1.9682   -0.5009 H   0  0  0  0  0  0  0  0  0  0  0  0
    3.1099    2.1746   -0.6451 H   0  0  0  0  0  0  0  0  0  0  0  0
    3.3376   -2.0202    0.3345 H   0  0  0  0  0  0  0  0  0  0  0  0
    0.6198   -2.1253    0.4564 H   0  0  0  0  0  0  0  0  0  0  0  0
   -2.3458   -2.4742    0.6446 H   0  0  0  0  0  0  0  0  0  0  0  0
  1  2  2  0
  2  3  1  0
  3  4  2  0
  4  5  1  0
  5  6  1  0
  6  7  1  0
  7  8  1  0
  8  9  2  0
  9 10  1  0
 10 11  1  0
  6 12  2  0
 12 13  1  0
 13 14  2  0
 14  1  1  0
 13  4  1  0
 11  7  2  0
  1 15  1  0
  2 16  1  0
  3 17  1  0
  5 18  1  0
  8 19  1  0
 11 20  1  0
 12 21  1  0
 14 22  1  0
M  END
