
     RDKit          3D

 21 23  0  0  0  0  0  0  0  0999 V2000
   -3.4386   -0.9234   -0.0380 C   0  0  0  0  0  0  0  0  0  0  0  0
   -3.4665    0.4401    0.2484 C   0  0  0  0  0  0  0  0  0  0  0  0
   -2.2844    1.1784    0.3605 C   0  0  0  0  0  0  0  0  0  0  0  0
   -1.0764    0.4966    0.1743 C   0  0  0  0  0  0  0  0  0  0  0  0
    0.2207    0.9538    0.2234 N   0  0  0  0  0  0  0  0  0  0  0  0
    1.0910   -0.0717   -0.0226 C   0  0  0  0  0  0  0  0  0  0  0  0
    2.6258    0.0925   -0.0434 C   0  0  0  0  0  0  0  0  0  0  0  0
    3.2187    1.3086    0.1898 N   0  0  0  0  0  0  0  0  0  0  0  0
    4.4884    1.0068    0.0810 C   0  0  0  0  0  0  0  0  0  0  0  0
    4.7269   -0.2991   -0.2010 O   0  0  0  0  0  0  0  0  0  0  0  0
    3.4755   -0.9142   -0.2847 N   0  0  0  0  0  0  0  0  0  0  0  0
    0.3579   -1.2158   -0.2358 C   0  0  0  0  0  0  0  0  0  0  0  0
   -1.0173   -0.8688   -0.1137 C   0  0  0  0  0  0  0  0  0  0  0  0
   -2.2216   -1.5904   -0.2214 C   0  0  0  0  0  0  0  0  0  0  0  0
   -4.3706   -1.4772   -0.1204 H   0  0  0  0  0  0  0  0  0  0  0  0
   -4.4230    0.9391    0.3873 H   0  0  0  0  0  0  0  0  0  0  0  0
   -2.3103    2.2399    0.5837 H   0  0  0  0  0  0  0  0  0  0  0  0
    0.5005    1.9064    0.4127 H   0  0  0  0  0  0  0  0  0  0  0  0
    5.3510    1.6475    0.1841 H   0  0  0  0  0  0  0  0  0  0  0  0
    0.7611   -2.1959   -0.4554 H   0  0  0  0  0  0  0  0  0  0  0  0
   -2.2088   -2.6531   -0.4444 H   0  0  0  0  0  0  0  0  0  0  0  0
  1  2  2  0
  2  3  1  0
  3  4  2  0
  4  5  1  0
  5  6  1  0
  6  7  1  0
  7  8  1  0
  8  9  2  0
  9 10  1  0
 10 11  1  0
  6 12  2  0
 12 13  1  0
 13 14  2  0
 14  1  1  0
 13  4  1  0
 11  7  2  0
  1 15  1  0
  2 16  1  0
  3 17  1  0
  5 18  1  0
  9 19  1  0
 12 20  1  0
 14 21  1  0
M  END
