
     RDKit          3D

 40 45  0  0  0  0  0  0  0  0999 V2000
   -7.1452    0.1395   -0.7469 C   0  0  0  0  0  0  0  0  0  0  0  0
   -6.7616   -1.1768   -0.4905 C   0  0  0  0  0  0  0  0  0  0  0  0
   -5.4260   -1.4938   -0.2219 C   0  0  0  0  0  0  0  0  0  0  0  0
   -4.4780   -0.4593   -0.2158 C   0  0  0  0  0  0  0  0  0  0  0  0
   -4.8753    0.8615   -0.4752 C   0  0  0  0  0  0  0  0  0  0  0  0
   -6.2115    1.1824   -0.7443 C   0  0  0  0  0  0  0  0  0  0  0  0
   -3.7662    1.6903   -0.4122 N   0  0  0  0  0  0  0  0  0  0  0  0
   -2.6711    0.9230   -0.1179 C   0  0  0  0  0  0  0  0  0  0  0  0
   -1.2794    0.9684    0.1066 C   0  0  0  0  0  0  0  0  0  0  0  0
   -0.2645    1.9163    0.1362 C   0  0  0  0  0  0  0  0  0  0  0  0
    1.0083    1.5293    0.4034 N   0  0  0  0  0  0  0  0  0  0  0  0
    1.2869    0.2183    0.6412 C   0  0  0  0  0  0  0  0  0  0  0  0
    0.3273   -0.7907    0.6324 C   0  0  0  0  0  0  0  0  0  0  0  0
   -0.9624   -0.3615    0.3545 C   0  0  0  0  0  0  0  0  0  0  0  0
   -2.0544   -1.1835    0.2936 O   0  0  0  0  0  0  0  0  0  0  0  0
   -3.0913   -0.3541   -0.0005 C   0  0  0  0  0  0  0  0  0  0  0  0
    2.6970   -0.0859    0.9300 C   0  0  0  0  0  0  0  0  0  0  0  0
    3.0624   -0.3557    2.2635 C   0  0  0  0  0  0  0  0  0  0  0  0
    4.3752   -0.6692    2.5998 C   0  0  0  0  0  0  0  0  0  0  0  0
    5.3486   -0.7202    1.6069 C   0  0  0  0  0  0  0  0  0  0  0  0
    5.0270   -0.4550    0.2677 C   0  0  0  0  0  0  0  0  0  0  0  0
    6.0250   -0.5129   -0.7197 C   0  0  0  0  0  0  0  0  0  0  0  0
    5.7292   -0.2540   -2.0571 C   0  0  0  0  0  0  0  0  0  0  0  0
    4.4303    0.0685   -2.4251 C   0  0  0  0  0  0  0  0  0  0  0  0
    3.4271    0.1300   -1.4552 C   0  0  0  0  0  0  0  0  0  0  0  0
    3.6928   -0.1292   -0.0893 C   0  0  0  0  0  0  0  0  0  0  0  0
   -8.1903    0.3607   -0.9531 H   0  0  0  0  0  0  0  0  0  0  0  0
   -7.5081   -1.9676   -0.4989 H   0  0  0  0  0  0  0  0  0  0  0  0
   -5.1284   -2.5189   -0.0225 H   0  0  0  0  0  0  0  0  0  0  0  0
   -6.5218    2.2030   -0.9453 H   0  0  0  0  0  0  0  0  0  0  0  0
   -3.7425    2.6914   -0.5546 H   0  0  0  0  0  0  0  0  0  0  0  0
   -0.4195    2.9733   -0.0437 H   0  0  0  0  0  0  0  0  0  0  0  0
    0.5595   -1.8296    0.8205 H   0  0  0  0  0  0  0  0  0  0  0  0
    2.3122   -0.3110    3.0512 H   0  0  0  0  0  0  0  0  0  0  0  0
    4.6402   -0.8705    3.6343 H   0  0  0  0  0  0  0  0  0  0  0  0
    6.3702   -0.9671    1.8887 H   0  0  0  0  0  0  0  0  0  0  0  0
    7.0497   -0.7613   -0.4515 H   0  0  0  0  0  0  0  0  0  0  0  0
    6.5136   -0.3014   -2.8074 H   0  0  0  0  0  0  0  0  0  0  0  0
    4.1921    0.2771   -3.4646 H   0  0  0  0  0  0  0  0  0  0  0  0
    2.4226    0.3961   -1.7789 H   0  0  0  0  0  0  0  0  0  0  0  0
  1  2  2  0
  2  3  1  0
  3  4  2  0
  4  5  1  0
  5  6  2  0
  5  7  1  0
  7  8  1  0
  8  9  1  0
  9 10  2  0
 10 11  1  0
 11 12  2  0
 12 13  1  0
 13 14  2  0
 14 15  1  0
 15 16  1  0
 12 17  1  0
 17 18  2  0
 18 19  1  0
 19 20  2  0
 20 21  1  0
 21 22  2  0
 22 23  1  0
 23 24  2  0
 24 25  1  0
 25 26  2  0
  6  1  1  0
 16  8  2  0
 26 17  1  0
 16  4  1  0
 26 21  1  0
 14  9  1  0
  1 27  1  0
  2 28  1  0
  3 29  1  0
  6 30  1  0
  7 31  1  0
 10 32  1  0
 13 33  1  0
 18 34  1  0
 19 35  1  0
 20 36  1  0
 22 37  1  0
 23 38  1  0
 24 39  1  0
 25 40  1  0
M  END
