
     RDKit          3D

 22 24  0  0  0  0  0  0  0  0999 V2000
    3.4012   -0.4411    0.3195 C   0  0  0  0  0  0  0  0  0  0  0  0
    3.1292    0.8382   -0.1596 C   0  0  0  0  0  0  0  0  0  0  0  0
    1.8099    1.2540   -0.3727 C   0  0  0  0  0  0  0  0  0  0  0  0
    0.7491    0.3658   -0.0984 C   0  0  0  0  0  0  0  0  0  0  0  0
    1.0549   -0.9076    0.3802 C   0  0  0  0  0  0  0  0  0  0  0  0
    2.3682   -1.3406    0.5993 C   0  0  0  0  0  0  0  0  0  0  0  0
   -0.1385   -1.5655    0.5643 N   0  0  0  0  0  0  0  0  0  0  0  0
   -1.2028   -0.7647    0.2227 C   0  0  0  0  0  0  0  0  0  0  0  0
   -2.5777   -1.0274    0.2543 C   0  0  0  0  0  0  0  0  0  0  0  0
   -3.4410   -0.0078   -0.1577 C   0  0  0  0  0  0  0  0  0  0  0  0
   -2.9469    1.2230   -0.5834 C   0  0  0  0  0  0  0  0  0  0  0  0
   -1.5691    1.4680   -0.6084 C   0  0  0  0  0  0  0  0  0  0  0  0
   -0.6764    0.4560   -0.1978 C   0  0  0  0  0  0  0  0  0  0  0  0
    4.4331   -0.7460    0.4789 H   0  0  0  0  0  0  0  0  0  0  0  0
    3.9476    1.5220   -0.3707 H   0  0  0  0  0  0  0  0  0  0  0  0
    1.6063    2.2529   -0.7464 H   0  0  0  0  0  0  0  0  0  0  0  0
    2.5842   -2.3362    0.9724 H   0  0  0  0  0  0  0  0  0  0  0  0
   -0.2222   -2.5113    0.9052 H   0  0  0  0  0  0  0  0  0  0  0  0
   -2.9664   -1.9848    0.5852 H   0  0  0  0  0  0  0  0  0  0  0  0
   -4.5149   -0.1794   -0.1453 H   0  0  0  0  0  0  0  0  0  0  0  0
   -3.6358    2.0022   -0.8997 H   0  0  0  0  0  0  0  0  0  0  0  0
   -1.1920    2.4301   -0.9416 H   0  0  0  0  0  0  0  0  0  0  0  0
  1  2  2  0
  2  3  1  0
  3  4  2  0
  4  5  1  0
  5  6  2  0
  5  7  1  0
  7  8  1  0
  8  9  2  0
  9 10  1  0
 10 11  2  0
 11 12  1  0
 12 13  2  0
  6  1  1  0
 13  8  1  0
 13  4  1  0
  1 14  1  0
  2 15  1  0
  3 16  1  0
  6 17  1  0
  7 18  1  0
  9 19  1  0
 10 20  1  0
 11 21  1  0
 12 22  1  0
M  END
