
     RDKit          3D

 62 69  0  0  0  0  0  0  0  0999 V2000
    7.8304   -2.2940   -2.0960 C   0  0  0  0  0  0  0  0  0  0  0  0
    6.5029   -2.6060   -2.3549 C   0  0  0  0  0  0  0  0  0  0  0  0
    5.4672   -1.8811   -1.7578 C   0  0  0  0  0  0  0  0  0  0  0  0
    5.7906   -0.8352   -0.8671 C   0  0  0  0  0  0  0  0  0  0  0  0
    7.1223   -0.4850   -0.6308 C   0  0  0  0  0  0  0  0  0  0  0  0
    8.1509   -1.2347   -1.2441 C   0  0  0  0  0  0  0  0  0  0  0  0
    7.1287    0.6458    0.2368 C   0  0  0  0  0  0  0  0  0  0  0  0
    8.1662    1.4189    0.8042 C   0  0  0  0  0  0  0  0  0  0  0  0
    7.8599    2.4711    1.6701 C   0  0  0  0  0  0  0  0  0  0  0  0
    6.5385    2.7530    1.9878 C   0  0  0  0  0  0  0  0  0  0  0  0
    5.4941    2.0045    1.4369 C   0  0  0  0  0  0  0  0  0  0  0  0
    5.8013    0.9658    0.5322 C   0  0  0  0  0  0  0  0  0  0  0  0
    4.9884    0.0562   -0.1496 N   0  0  0  0  0  0  0  0  0  0  0  0
    3.5614    0.0401   -0.1181 C   0  0  0  0  0  0  0  0  0  0  0  0
    2.8416    1.2338   -0.2278 C   0  0  0  0  0  0  0  0  0  0  0  0
    1.4429    1.2133   -0.1981 C   0  0  0  0  0  0  0  0  0  0  0  0
    0.7358    0.0084   -0.0562 C   0  0  0  0  0  0  0  0  0  0  0  0
   -0.7358   -0.0082   -0.0241 C   0  0  0  0  0  0  0  0  0  0  0  0
   -1.4488    0.7927    0.8827 C   0  0  0  0  0  0  0  0  0  0  0  0
   -2.8476    0.7811    0.9156 C   0  0  0  0  0  0  0  0  0  0  0  0
   -3.5614   -0.0401    0.0375 C   0  0  0  0  0  0  0  0  0  0  0  0
   -4.9884   -0.0562    0.0687 N   0  0  0  0  0  0  0  0  0  0  0  0
   -5.7848   -1.2030    0.0091 C   0  0  0  0  0  0  0  0  0  0  0  0
   -5.4544   -2.5748   -0.0218 C   0  0  0  0  0  0  0  0  0  0  0  0
   -6.4852   -3.5184   -0.0609 C   0  0  0  0  0  0  0  0  0  0  0  0
   -7.8148   -3.1199   -0.0493 C   0  0  0  0  0  0  0  0  0  0  0  0
   -8.1422   -1.7639    0.0194 C   0  0  0  0  0  0  0  0  0  0  0  0
   -7.1186   -0.7911    0.0629 C   0  0  0  0  0  0  0  0  0  0  0  0
   -7.1324    0.6303    0.1682 C   0  0  0  0  0  0  0  0  0  0  0  0
   -8.1749    1.5797    0.2570 C   0  0  0  0  0  0  0  0  0  0  0  0
   -7.8755    2.9428    0.3119 C   0  0  0  0  0  0  0  0  0  0  0  0
   -6.5561    3.3713    0.2654 C   0  0  0  0  0  0  0  0  0  0  0  0
   -5.5068    2.4512    0.1807 C   0  0  0  0  0  0  0  0  0  0  0  0
   -5.8071    1.0723    0.1637 C   0  0  0  0  0  0  0  0  0  0  0  0
   -2.8682   -0.8454   -0.8713 C   0  0  0  0  0  0  0  0  0  0  0  0
   -1.4694   -0.8254   -0.8993 C   0  0  0  0  0  0  0  0  0  0  0  0
    1.4753   -1.1803    0.0541 C   0  0  0  0  0  0  0  0  0  0  0  0
    2.8741   -1.1693    0.0225 C   0  0  0  0  0  0  0  0  0  0  0  0
    8.6253   -2.8648   -2.5691 H   0  0  0  0  0  0  0  0  0  0  0  0
    6.2633   -3.4179   -3.0379 H   0  0  0  0  0  0  0  0  0  0  0  0
    4.4377   -2.1225   -2.0034 H   0  0  0  0  0  0  0  0  0  0  0  0
    9.1920   -0.9829   -1.0629 H   0  0  0  0  0  0  0  0  0  0  0  0
    9.2037    1.1907    0.5767 H   0  0  0  0  0  0  0  0  0  0  0  0
    8.6619    3.0600    2.1077 H   0  0  0  0  0  0  0  0  0  0  0  0
    6.3111    3.5595    2.6812 H   0  0  0  0  0  0  0  0  0  0  0  0
    4.4712    2.2226    1.7280 H   0  0  0  0  0  0  0  0  0  0  0  0
    3.3451    2.1851   -0.3834 H   0  0  0  0  0  0  0  0  0  0  0  0
    0.9031    2.1523   -0.3083 H   0  0  0  0  0  0  0  0  0  0  0  0
   -0.9137    1.4225    1.5913 H   0  0  0  0  0  0  0  0  0  0  0  0
   -3.3557    1.3847    1.6641 H   0  0  0  0  0  0  0  0  0  0  0  0
   -4.4232   -2.9132    0.0029 H   0  0  0  0  0  0  0  0  0  0  0  0
   -6.2403   -4.5777   -0.0912 H   0  0  0  0  0  0  0  0  0  0  0  0
   -8.6060   -3.8648   -0.0779 H   0  0  0  0  0  0  0  0  0  0  0  0
   -9.1850   -1.4606    0.0495 H   0  0  0  0  0  0  0  0  0  0  0  0
   -9.2108    1.2528    0.2726 H   0  0  0  0  0  0  0  0  0  0  0  0
   -8.6813    3.6695    0.3755 H   0  0  0  0  0  0  0  0  0  0  0  0
   -6.3340    4.4358    0.2853 H   0  0  0  0  0  0  0  0  0  0  0  0
   -4.4857    2.8128    0.1109 H   0  0  0  0  0  0  0  0  0  0  0  0
   -3.3947   -1.4606   -1.5972 H   0  0  0  0  0  0  0  0  0  0  0  0
   -0.9516   -1.4434   -1.6308 H   0  0  0  0  0  0  0  0  0  0  0  0
    0.9621   -2.1311    0.1874 H   0  0  0  0  0  0  0  0  0  0  0  0
    3.4052   -2.1090    0.1554 H   0  0  0  0  0  0  0  0  0  0  0  0
  1  2  2  0
  2  3  1  0
  3  4  2  0
  4  5  1  0
  5  6  2  0
  5  7  1  0
  7  8  2  0
  8  9  1  0
  9 10  2  0
 10 11  1  0
 11 12  2  0
 12 13  1  0
 13 14  1  0
 14 15  2  0
 15 16  1  0
 16 17  2  0
 17 18  1  0
 18 19  2  0
 19 20  1  0
 20 21  2  0
 21 22  1  0
 22 23  1  0
 23 24  2  0
 24 25  1  0
 25 26  2  0
 26 27  1  0
 27 28  2  0
 28 29  1  0
 29 30  2  0
 30 31  1  0
 31 32  2  0
 32 33  1  0
 33 34  2  0
 21 35  1  0
 35 36  2  0
 17 37  1  0
 37 38  2  0
  6  1  1  0
 12  7  1  0
 38 14  1  0
 13  4  1  0
 36 18  1  0
 34 22  1  0
 28 23  1  0
 34 29  1  0
  1 39  1  0
  2 40  1  0
  3 41  1  0
  6 42  1  0
  8 43  1  0
  9 44  1  0
 10 45  1  0
 11 46  1  0
 15 47  1  0
 16 48  1  0
 19 49  1  0
 20 50  1  0
 24 51  1  0
 25 52  1  0
 26 53  1  0
 27 54  1  0
 30 55  1  0
 31 56  1  0
 32 57  1  0
 33 58  1  0
 35 59  1  0
 36 60  1  0
 37 61  1  0
 38 62  1  0
M  END
