
     RDKit          3D

 46 50  0  0  0  0  0  0  0  0999 V2000
   -7.5090    0.3711    0.6472 C   0  0  0  0  0  0  0  0  0  0  0  0
   -7.4555    0.0711   -0.7050 C   0  0  0  0  0  0  0  0  0  0  0  0
   -6.2179   -0.0041   -1.3464 C   0  0  0  0  0  0  0  0  0  0  0  0
   -5.0057    0.2176   -0.6595 C   0  0  0  0  0  0  0  0  0  0  0  0
   -5.0690    0.4986    0.7127 C   0  0  0  0  0  0  0  0  0  0  0  0
   -6.3255    0.5858    1.3491 C   0  0  0  0  0  0  0  0  0  0  0  0
   -3.8400    0.7624    1.5419 C   0  0  0  0  0  0  0  0  0  0  0  0
   -2.7920   -0.3324    1.3943 C   0  0  0  0  0  0  0  0  0  0  0  0
   -1.9204   -0.1348    0.1818 C   0  0  0  0  0  0  0  0  0  0  0  0
   -0.5184   -0.1904    0.3594 C   0  0  0  0  0  0  0  0  0  0  0  0
    0.3797   -0.0388   -0.7074 C   0  0  0  0  0  0  0  0  0  0  0  0
    1.8343   -0.0920   -0.4944 C   0  0  0  0  0  0  0  0  0  0  0  0
    2.6437   -0.9665   -1.2305 C   0  0  0  0  0  0  0  0  0  0  0  0
    4.0292   -1.0131   -1.0267 C   0  0  0  0  0  0  0  0  0  0  0  0
    4.6643   -0.1929   -0.0779 C   0  0  0  0  0  0  0  0  0  0  0  0
    6.1257   -0.2646    0.1218 C   0  0  0  0  0  0  0  0  0  0  0  0
    6.7577    0.0283    1.3315 C   0  0  0  0  0  0  0  0  0  0  0  0
    8.1026   -0.0334    1.5147 N   0  0  0  0  0  0  0  0  0  0  0  0
    8.8106   -0.4109    0.4302 C   0  0  0  0  0  0  0  0  0  0  0  0
    8.2055   -0.7149   -0.7750 C   0  0  0  0  0  0  0  0  0  0  0  0
    6.8652   -0.6524   -0.9533 N   0  0  0  0  0  0  0  0  0  0  0  0
    3.8471    0.6889    0.6498 C   0  0  0  0  0  0  0  0  0  0  0  0
    2.4600    0.7361    0.4474 C   0  0  0  0  0  0  0  0  0  0  0  0
   -0.1593    0.1665   -1.9785 C   0  0  0  0  0  0  0  0  0  0  0  0
   -1.5443    0.2114   -2.1677 C   0  0  0  0  0  0  0  0  0  0  0  0
   -2.4492    0.0519   -1.1008 C   0  0  0  0  0  0  0  0  0  0  0  0
   -3.8193    0.1156   -1.4086 N   0  0  0  0  0  0  0  0  0  0  0  0
   -8.4661    0.4376    1.1569 H   0  0  0  0  0  0  0  0  0  0  0  0
   -8.3705   -0.1034   -1.2640 H   0  0  0  0  0  0  0  0  0  0  0  0
   -6.2067   -0.2435   -2.4073 H   0  0  0  0  0  0  0  0  0  0  0  0
   -6.3863    0.8228    2.4096 H   0  0  0  0  0  0  0  0  0  0  0  0
   -3.4378    1.7524    1.2921 H   0  0  0  0  0  0  0  0  0  0  0  0
   -4.1250    0.8034    2.6012 H   0  0  0  0  0  0  0  0  0  0  0  0
   -3.2437   -1.3319    1.3591 H   0  0  0  0  0  0  0  0  0  0  0  0
   -2.1643   -0.3091    2.2946 H   0  0  0  0  0  0  0  0  0  0  0  0
   -0.1187   -0.3681    1.3574 H   0  0  0  0  0  0  0  0  0  0  0  0
    2.2015   -1.6329   -1.9686 H   0  0  0  0  0  0  0  0  0  0  0  0
    4.6193   -1.7099   -1.6214 H   0  0  0  0  0  0  0  0  0  0  0  0
    6.1981    0.3134    2.2155 H   0  0  0  0  0  0  0  0  0  0  0  0
    9.8857   -0.4653    0.5561 H   0  0  0  0  0  0  0  0  0  0  0  0
    8.7849   -1.0195   -1.6390 H   0  0  0  0  0  0  0  0  0  0  0  0
    4.2749    1.3767    1.3758 H   0  0  0  0  0  0  0  0  0  0  0  0
    1.8699    1.4462    1.0243 H   0  0  0  0  0  0  0  0  0  0  0  0
    0.4944    0.3052   -2.8370 H   0  0  0  0  0  0  0  0  0  0  0  0
   -1.9149    0.3800   -3.1764 H   0  0  0  0  0  0  0  0  0  0  0  0
   -3.9948    0.0818   -2.4064 H   0  0  0  0  0  0  0  0  0  0  0  0
  1  2  2  0
  2  3  1  0
  3  4  2  0
  4  5  1  0
  5  6  2  0
  5  7  1  0
  7  8  1  0
  8  9  1  0
  9 10  2  0
 10 11  1  0
 11 12  1  0
 12 13  2  0
 13 14  1  0
 14 15  2  0
 15 16  1  0
 16 17  2  0
 17 18  1  0
 18 19  2  0
 19 20  1  0
 20 21  2  0
 15 22  1  0
 22 23  2  0
 11 24  2  0
 24 25  1  0
 25 26  2  0
 26 27  1  0
  6  1  1  0
 26  9  1  0
 27  4  1  0
 23 12  1  0
 21 16  1  0
  1 28  1  0
  2 29  1  0
  3 30  1  0
  6 31  1  0
  7 32  1  0
  7 33  1  0
  8 34  1  0
  8 35  1  0
 10 36  1  0
 13 37  1  0
 14 38  1  0
 17 39  1  0
 19 40  1  0
 20 41  1  0
 22 42  1  0
 23 43  1  0
 24 44  1  0
 25 45  1  0
 27 46  1  0
M  END
