
     RDKit          3D

 42 46  0  0  0  0  0  0  0  0999 V2000
    6.5965    0.3534    0.7136 C   0  0  0  0  0  0  0  0  0  0  0  0
    6.5496   -0.7674   -0.1006 C   0  0  0  0  0  0  0  0  0  0  0  0
    5.3215   -1.2102   -0.5946 C   0  0  0  0  0  0  0  0  0  0  0  0
    4.1123   -0.5494   -0.2920 C   0  0  0  0  0  0  0  0  0  0  0  0
    4.1673    0.5697    0.5509 C   0  0  0  0  0  0  0  0  0  0  0  0
    5.4152    1.0177    1.0341 C   0  0  0  0  0  0  0  0  0  0  0  0
    2.9411    1.3566    0.9319 C   0  0  0  0  0  0  0  0  0  0  0  0
    1.8344    0.4738    1.4928 C   0  0  0  0  0  0  0  0  0  0  0  0
    0.9974   -0.1568    0.4106 C   0  0  0  0  0  0  0  0  0  0  0  0
   -0.4085   -0.0359    0.5079 C   0  0  0  0  0  0  0  0  0  0  0  0
   -1.2777   -0.6018   -0.4366 C   0  0  0  0  0  0  0  0  0  0  0  0
   -2.7369   -0.4550   -0.3158 C   0  0  0  0  0  0  0  0  0  0  0  0
   -3.5834   -1.5685   -0.3546 C   0  0  0  0  0  0  0  0  0  0  0  0
   -4.9677   -1.4153   -0.2372 C   0  0  0  0  0  0  0  0  0  0  0  0
   -5.5439   -0.1637   -0.0800 C   0  0  0  0  0  0  0  0  0  0  0  0
   -6.8832   -0.0563    0.0296 N   0  0  0  0  0  0  0  0  0  0  0  0
   -7.3737    1.1927    0.1799 C   0  0  0  0  0  0  0  0  0  0  0  0
   -6.5574    2.3038    0.2205 C   0  0  0  0  0  0  0  0  0  0  0  0
   -5.2143    2.2155    0.1128 N   0  0  0  0  0  0  0  0  0  0  0  0
   -4.7045    0.9762   -0.0383 C   0  0  0  0  0  0  0  0  0  0  0  0
   -3.3288    0.8090   -0.1565 C   0  0  0  0  0  0  0  0  0  0  0  0
   -0.7049   -1.3086   -1.4955 C   0  0  0  0  0  0  0  0  0  0  0  0
    0.6836   -1.4448   -1.5948 C   0  0  0  0  0  0  0  0  0  0  0  0
    1.5588   -0.8849   -0.6447 C   0  0  0  0  0  0  0  0  0  0  0  0
    2.9354   -1.0864   -0.8451 N   0  0  0  0  0  0  0  0  0  0  0  0
    7.5465    0.7114    1.1003 H   0  0  0  0  0  0  0  0  0  0  0  0
    7.4628   -1.2981   -0.3548 H   0  0  0  0  0  0  0  0  0  0  0  0
    5.3153   -2.0937   -1.2289 H   0  0  0  0  0  0  0  0  0  0  0  0
    5.4707    1.8973    1.6727 H   0  0  0  0  0  0  0  0  0  0  0  0
    3.2092    2.0820    1.7111 H   0  0  0  0  0  0  0  0  0  0  0  0
    2.6015    1.9425    0.0685 H   0  0  0  0  0  0  0  0  0  0  0  0
    2.2281   -0.3102    2.1519 H   0  0  0  0  0  0  0  0  0  0  0  0
    1.1932    1.1090    2.1178 H   0  0  0  0  0  0  0  0  0  0  0  0
   -0.8333    0.5082    1.3513 H   0  0  0  0  0  0  0  0  0  0  0  0
   -3.1723   -2.5705   -0.4635 H   0  0  0  0  0  0  0  0  0  0  0  0
   -5.6102   -2.2919   -0.2657 H   0  0  0  0  0  0  0  0  0  0  0  0
   -8.4508    1.2745    0.2674 H   0  0  0  0  0  0  0  0  0  0  0  0
   -6.9611    3.3023    0.3413 H   0  0  0  0  0  0  0  0  0  0  0  0
   -2.7045    1.7005   -0.1338 H   0  0  0  0  0  0  0  0  0  0  0  0
   -1.3319   -1.7533   -2.2652 H   0  0  0  0  0  0  0  0  0  0  0  0
    1.0816   -1.9995   -2.4418 H   0  0  0  0  0  0  0  0  0  0  0  0
    3.1272   -1.7740   -1.5647 H   0  0  0  0  0  0  0  0  0  0  0  0
  1  2  2  0
  2  3  1  0
  3  4  2  0
  4  5  1  0
  5  6  2  0
  5  7  1  0
  7  8  1  0
  8  9  1  0
  9 10  2  0
 10 11  1  0
 11 12  1  0
 12 13  2  0
 13 14  1  0
 14 15  2  0
 15 16  1  0
 16 17  2  0
 17 18  1  0
 18 19  2  0
 19 20  1  0
 20 21  2  0
 11 22  2  0
 22 23  1  0
 23 24  2  0
 24 25  1  0
  6  1  1  0
 24  9  1  0
 25  4  1  0
 21 12  1  0
 20 15  1  0
  1 26  1  0
  2 27  1  0
  3 28  1  0
  6 29  1  0
  7 30  1  0
  7 31  1  0
  8 32  1  0
  8 33  1  0
 10 34  1  0
 13 35  1  0
 14 36  1  0
 17 37  1  0
 18 38  1  0
 21 39  1  0
 22 40  1  0
 23 41  1  0
 25 42  1  0
M  END
