
     RDKit          3D

 40 44  0  0  0  0  0  0  0  0999 V2000
   -6.0351    1.5359    1.4844 C   0  0  0  0  0  0  0  0  0  0  0  0
   -6.2857    0.2723    0.9728 C   0  0  0  0  0  0  0  0  0  0  0  0
   -5.2382   -0.4707    0.4258 C   0  0  0  0  0  0  0  0  0  0  0  0
   -3.9183    0.0249    0.3741 C   0  0  0  0  0  0  0  0  0  0  0  0
   -3.6707    1.2951    0.9138 C   0  0  0  0  0  0  0  0  0  0  0  0
   -4.7388    2.0438    1.4523 C   0  0  0  0  0  0  0  0  0  0  0  0
   -2.3035    1.9266    0.9025 C   0  0  0  0  0  0  0  0  0  0  0  0
   -1.2375    1.0153    1.4955 C   0  0  0  0  0  0  0  0  0  0  0  0
   -0.7050    0.0246    0.4933 C   0  0  0  0  0  0  0  0  0  0  0  0
    0.6993   -0.0799    0.3508 C   0  0  0  0  0  0  0  0  0  0  0  0
    1.3129   -0.9798   -0.5387 C   0  0  0  0  0  0  0  0  0  0  0  0
    2.7838   -1.0491   -0.6499 C   0  0  0  0  0  0  0  0  0  0  0  0
    3.4777   -2.1814   -1.0540 C   0  0  0  0  0  0  0  0  0  0  0  0
    4.8263   -2.2332   -1.1564 N   0  0  0  0  0  0  0  0  0  0  0  0
    5.4962   -1.1211   -0.8375 C   0  0  0  0  0  0  0  0  0  0  0  0
    6.8333   -1.1407   -0.9288 N   0  0  0  0  0  0  0  0  0  0  0  0
    7.4842   -0.0075   -0.5976 C   0  0  0  0  0  0  0  0  0  0  0  0
    6.8173    1.1236   -0.1829 C   0  0  0  0  0  0  0  0  0  0  0  0
    5.4734    1.1663   -0.0836 N   0  0  0  0  0  0  0  0  0  0  0  0
    4.8035    0.0517   -0.4092 C   0  0  0  0  0  0  0  0  0  0  0  0
    3.4675    0.0737   -0.3192 N   0  0  0  0  0  0  0  0  0  0  0  0
    0.4598   -1.7822   -1.3037 C   0  0  0  0  0  0  0  0  0  0  0  0
   -0.9314   -1.6975   -1.1620 C   0  0  0  0  0  0  0  0  0  0  0  0
   -1.5396   -0.8090   -0.2566 C   0  0  0  0  0  0  0  0  0  0  0  0
   -2.9435   -0.8120   -0.1998 N   0  0  0  0  0  0  0  0  0  0  0  0
   -6.8426    2.1265    1.9081 H   0  0  0  0  0  0  0  0  0  0  0  0
   -7.2913   -0.1380    0.9955 H   0  0  0  0  0  0  0  0  0  0  0  0
   -5.4646   -1.4598    0.0341 H   0  0  0  0  0  0  0  0  0  0  0  0
   -4.5604    3.0387    1.8559 H   0  0  0  0  0  0  0  0  0  0  0  0
   -2.3270    2.8422    1.5078 H   0  0  0  0  0  0  0  0  0  0  0  0
   -2.0550    2.2389   -0.1197 H   0  0  0  0  0  0  0  0  0  0  0  0
   -1.6022    0.4776    2.3799 H   0  0  0  0  0  0  0  0  0  0  0  0
   -0.4146    1.6546    1.8408 H   0  0  0  0  0  0  0  0  0  0  0  0
    1.3357    0.5672    0.9572 H   0  0  0  0  0  0  0  0  0  0  0  0
    2.9738   -3.1097   -1.3014 H   0  0  0  0  0  0  0  0  0  0  0  0
    8.5652   -0.0374   -0.6762 H   0  0  0  0  0  0  0  0  0  0  0  0
    7.3447    2.0330    0.0829 H   0  0  0  0  0  0  0  0  0  0  0  0
    0.8506   -2.4792   -2.0410 H   0  0  0  0  0  0  0  0  0  0  0  0
   -1.5476   -2.3417   -1.7862 H   0  0  0  0  0  0  0  0  0  0  0  0
   -3.3527   -1.6024   -0.6847 H   0  0  0  0  0  0  0  0  0  0  0  0
  1  2  2  0
  2  3  1  0
  3  4  2  0
  4  5  1  0
  5  6  2  0
  5  7  1  0
  7  8  1  0
  8  9  1  0
  9 10  2  0
 10 11  1  0
 11 12  1  0
 12 13  2  0
 13 14  1  0
 14 15  2  0
 15 16  1  0
 16 17  2  0
 17 18  1  0
 18 19  2  0
 19 20  1  0
 20 21  2  0
 11 22  2  0
 22 23  1  0
 23 24  2  0
 24 25  1  0
  6  1  1  0
 24  9  1  0
 25  4  1  0
 21 12  1  0
 20 15  1  0
  1 26  1  0
  2 27  1  0
  3 28  1  0
  6 29  1  0
  7 30  1  0
  7 31  1  0
  8 32  1  0
  8 33  1  0
 10 34  1  0
 13 35  1  0
 17 36  1  0
 18 37  1  0
 22 38  1  0
 23 39  1  0
 25 40  1  0
M  END
