
     RDKit          3D

 34 37  0  0  0  0  0  0  0  0999 V2000
   -5.1281   -0.6987   -0.5197 C   0  0  0  0  0  0  0  0  0  0  0  0
   -5.0504    0.6794   -0.3928 C   0  0  0  0  0  0  0  0  0  0  0  0
   -3.8200    1.2786   -0.1181 C   0  0  0  0  0  0  0  0  0  0  0  0
   -2.6389    0.5225    0.0371 C   0  0  0  0  0  0  0  0  0  0  0  0
   -2.7238   -0.8689   -0.1143 C   0  0  0  0  0  0  0  0  0  0  0  0
   -3.9747   -1.4662   -0.3787 C   0  0  0  0  0  0  0  0  0  0  0  0
   -1.5301   -1.7740    0.0410 C   0  0  0  0  0  0  0  0  0  0  0  0
   -0.3542   -1.3390   -0.8230 C   0  0  0  0  0  0  0  0  0  0  0  0
    0.4728   -0.2634   -0.1691 C   0  0  0  0  0  0  0  0  0  0  0  0
    1.8723   -0.4559   -0.1033 C   0  0  0  0  0  0  0  0  0  0  0  0
    2.7312    0.4919    0.4688 C   0  0  0  0  0  0  0  0  0  0  0  0
    4.1692    0.2297    0.5115 C   0  0  0  0  0  0  0  0  0  0  0  0
    5.1398    1.1905    0.7324 C   0  0  0  0  0  0  0  0  0  0  0  0
    6.7024    0.4794    0.7020 S   0  0  0  0  0  0  0  0  0  0  0  0
    5.9790   -1.0404    0.3883 C   0  0  0  0  0  0  0  0  0  0  0  0
    4.6679   -1.0517    0.3052 N   0  0  0  0  0  0  0  0  0  0  0  0
    2.1641    1.6546    0.9884 C   0  0  0  0  0  0  0  0  0  0  0  0
    0.7811    1.8599    0.9158 C   0  0  0  0  0  0  0  0  0  0  0  0
   -0.0868    0.9191    0.3279 C   0  0  0  0  0  0  0  0  0  0  0  0
   -1.4567    1.2336    0.3133 N   0  0  0  0  0  0  0  0  0  0  0  0
   -6.0807   -1.1778   -0.7283 H   0  0  0  0  0  0  0  0  0  0  0  0
   -5.9415    1.2907   -0.5048 H   0  0  0  0  0  0  0  0  0  0  0  0
   -3.7893    2.3618   -0.0259 H   0  0  0  0  0  0  0  0  0  0  0  0
   -4.0542   -2.5470   -0.4787 H   0  0  0  0  0  0  0  0  0  0  0  0
   -1.2584   -1.8395    1.1022 H   0  0  0  0  0  0  0  0  0  0  0  0
   -1.8081   -2.7896   -0.2697 H   0  0  0  0  0  0  0  0  0  0  0  0
    0.2746   -2.2231   -0.9906 H   0  0  0  0  0  0  0  0  0  0  0  0
   -0.6769   -0.9976   -1.8147 H   0  0  0  0  0  0  0  0  0  0  0  0
    2.3014   -1.3719   -0.5099 H   0  0  0  0  0  0  0  0  0  0  0  0
    5.0301    2.2514    0.8998 H   0  0  0  0  0  0  0  0  0  0  0  0
    6.5729   -1.9364    0.2646 H   0  0  0  0  0  0  0  0  0  0  0  0
    2.7709    2.4168    1.4676 H   0  0  0  0  0  0  0  0  0  0  0  0
    0.3797    2.7790    1.3376 H   0  0  0  0  0  0  0  0  0  0  0  0
   -1.6365    2.2021    0.5517 H   0  0  0  0  0  0  0  0  0  0  0  0
  1  2  2  0
  2  3  1  0
  3  4  2  0
  4  5  1  0
  5  6  2  0
  5  7  1  0
  7  8  1  0
  8  9  1  0
  9 10  2  0
 10 11  1  0
 11 12  1  0
 12 13  2  0
 13 14  1  0
 14 15  1  0
 15 16  2  0
 11 17  2  0
 17 18  1  0
 18 19  2  0
 19 20  1  0
  6  1  1  0
 19  9  1  0
 20  4  1  0
 16 12  1  0
  1 21  1  0
  2 22  1  0
  3 23  1  0
  6 24  1  0
  7 25  1  0
  7 26  1  0
  8 27  1  0
  8 28  1  0
 10 29  1  0
 13 30  1  0
 15 31  1  0
 17 32  1  0
 18 33  1  0
 20 34  1  0
M  END
