
     RDKit          3D

 40 44  0  0  0  0  0  0  0  0999 V2000
   -6.4777   -0.3089    0.5502 C   0  0  0  0  0  0  0  0  0  0  0  0
   -6.3484    1.0575    0.3558 C   0  0  0  0  0  0  0  0  0  0  0  0
   -5.0910    1.5998    0.0851 C   0  0  0  0  0  0  0  0  0  0  0  0
   -3.9337    0.7973    0.0005 C   0  0  0  0  0  0  0  0  0  0  0  0
   -4.0710   -0.5805    0.2210 C   0  0  0  0  0  0  0  0  0  0  0  0
   -5.3485   -1.1210    0.4805 C   0  0  0  0  0  0  0  0  0  0  0  0
   -2.9060   -1.5317    0.1458 C   0  0  0  0  0  0  0  0  0  0  0  0
   -1.7381   -1.0906    1.0176 C   0  0  0  0  0  0  0  0  0  0  0  0
   -0.8559   -0.0807    0.3307 C   0  0  0  0  0  0  0  0  0  0  0  0
    0.5378   -0.3245    0.3133 C   0  0  0  0  0  0  0  0  0  0  0  0
    1.4397    0.5638   -0.2867 C   0  0  0  0  0  0  0  0  0  0  0  0
    2.8792    0.3154   -0.3145 C   0  0  0  0  0  0  0  0  0  0  0  0
    3.8390    1.0594   -0.8386 N   0  0  0  0  0  0  0  0  0  0  0  0
    4.9829    0.3499   -0.5763 C   0  0  0  0  0  0  0  0  0  0  0  0
    6.3241    0.6169   -0.8793 C   0  0  0  0  0  0  0  0  0  0  0  0
    7.2920   -0.3150   -0.4733 C   0  0  0  0  0  0  0  0  0  0  0  0
    6.9313   -1.4805    0.2158 C   0  0  0  0  0  0  0  0  0  0  0  0
    5.5946   -1.7606    0.5256 C   0  0  0  0  0  0  0  0  0  0  0  0
    4.6689   -0.8132    0.1060 C   0  0  0  0  0  0  0  0  0  0  0  0
    3.3170   -0.8440    0.2789 O   0  0  0  0  0  0  0  0  0  0  0  0
    0.9251    1.7199   -0.8728 C   0  0  0  0  0  0  0  0  0  0  0  0
   -0.4492    1.9768   -0.8491 C   0  0  0  0  0  0  0  0  0  0  0  0
   -1.3624    1.0932   -0.2415 C   0  0  0  0  0  0  0  0  0  0  0  0
   -2.7206    1.4534   -0.2768 N   0  0  0  0  0  0  0  0  0  0  0  0
   -7.4516   -0.7440    0.7563 H   0  0  0  0  0  0  0  0  0  0  0  0
   -7.2200    1.7035    0.4120 H   0  0  0  0  0  0  0  0  0  0  0  0
   -5.0198    2.6753   -0.0605 H   0  0  0  0  0  0  0  0  0  0  0  0
   -5.4687   -2.1919    0.6333 H   0  0  0  0  0  0  0  0  0  0  0  0
   -3.2269   -2.5195    0.5016 H   0  0  0  0  0  0  0  0  0  0  0  0
   -2.6097   -1.6626   -0.9027 H   0  0  0  0  0  0  0  0  0  0  0  0
   -2.0739   -0.6851    1.9805 H   0  0  0  0  0  0  0  0  0  0  0  0
   -1.1457   -1.9852    1.2496 H   0  0  0  0  0  0  0  0  0  0  0  0
    0.9197   -1.2319    0.7797 H   0  0  0  0  0  0  0  0  0  0  0  0
    6.5991    1.5198   -1.4127 H   0  0  0  0  0  0  0  0  0  0  0  0
    8.3400   -0.1268   -0.6986 H   0  0  0  0  0  0  0  0  0  0  0  0
    7.7060   -2.1836    0.5172 H   0  0  0  0  0  0  0  0  0  0  0  0
    5.2963   -2.6552    1.0570 H   0  0  0  0  0  0  0  0  0  0  0  0
    1.5921    2.4339   -1.3531 H   0  0  0  0  0  0  0  0  0  0  0  0
   -0.8045    2.8905   -1.3208 H   0  0  0  0  0  0  0  0  0  0  0  0
   -2.8613    2.4105   -0.5804 H   0  0  0  0  0  0  0  0  0  0  0  0
  1  2  2  0
  2  3  1  0
  3  4  2  0
  4  5  1  0
  5  6  2  0
  5  7  1  0
  7  8  1  0
  8  9  1  0
  9 10  2  0
 10 11  1  0
 11 12  1  0
 12 13  2  0
 13 14  1  0
 14 15  2  0
 15 16  1  0
 16 17  2  0
 17 18  1  0
 18 19  2  0
 19 20  1  0
 11 21  2  0
 21 22  1  0
 22 23  2  0
 23 24  1  0
  6  1  1  0
 23  9  1  0
 24  4  1  0
 20 12  1  0
 19 14  1  0
  1 25  1  0
  2 26  1  0
  3 27  1  0
  6 28  1  0
  7 29  1  0
  7 30  1  0
  8 31  1  0
  8 32  1  0
 10 33  1  0
 15 34  1  0
 16 35  1  0
 17 36  1  0
 18 37  1  0
 21 38  1  0
 22 39  1  0
 24 40  1  0
M  END
