
     RDKit          3D

 33 36  0  0  0  0  0  0  0  0999 V2000
   -4.9773    0.8196   -0.3887 C   0  0  0  0  0  0  0  0  0  0  0  0
   -4.9135   -0.1415    0.6080 C   0  0  0  0  0  0  0  0  0  0  0  0
   -3.6838   -0.7158    0.9347 C   0  0  0  0  0  0  0  0  0  0  0  0
   -2.4900   -0.3491    0.2784 C   0  0  0  0  0  0  0  0  0  0  0  0
   -2.5613    0.6399   -0.7129 C   0  0  0  0  0  0  0  0  0  0  0  0
   -3.8111    1.2047   -1.0453 C   0  0  0  0  0  0  0  0  0  0  0  0
   -1.3530    1.1010   -1.4842 C   0  0  0  0  0  0  0  0  0  0  0  0
   -0.2047    1.5144   -0.5736 C   0  0  0  0  0  0  0  0  0  0  0  0
    0.6263    0.3403   -0.1261 C   0  0  0  0  0  0  0  0  0  0  0  0
    2.0292    0.4266   -0.2826 C   0  0  0  0  0  0  0  0  0  0  0  0
    2.8849   -0.6073    0.1185 C   0  0  0  0  0  0  0  0  0  0  0  0
    4.3278   -0.4881   -0.0644 C   0  0  0  0  0  0  0  0  0  0  0  0
    4.9102    0.6264   -0.6355 N   0  0  0  0  0  0  0  0  0  0  0  0
    6.1820    0.3218   -0.6054 C   0  0  0  0  0  0  0  0  0  0  0  0
    6.4448   -0.8913   -0.0629 O   0  0  0  0  0  0  0  0  0  0  0  0
    5.2131   -1.4339    0.2986 N   0  0  0  0  0  0  0  0  0  0  0  0
    2.3183   -1.7447    0.6927 C   0  0  0  0  0  0  0  0  0  0  0  0
    0.9328   -1.8326    0.8634 C   0  0  0  0  0  0  0  0  0  0  0  0
    0.0638   -0.7952    0.4708 C   0  0  0  0  0  0  0  0  0  0  0  0
   -1.3101   -0.9945    0.6914 N   0  0  0  0  0  0  0  0  0  0  0  0
   -5.9289    1.2704   -0.6560 H   0  0  0  0  0  0  0  0  0  0  0  0
   -5.8145   -0.4481    1.1317 H   0  0  0  0  0  0  0  0  0  0  0  0
   -3.6641   -1.4656    1.7225 H   0  0  0  0  0  0  0  0  0  0  0  0
   -3.8801    1.9589   -1.8270 H   0  0  0  0  0  0  0  0  0  0  0  0
   -1.6259    1.9769   -2.0871 H   0  0  0  0  0  0  0  0  0  0  0  0
   -1.0537    0.3192   -2.1938 H   0  0  0  0  0  0  0  0  0  0  0  0
    0.4303    2.2078   -1.1404 H   0  0  0  0  0  0  0  0  0  0  0  0
   -0.5565    2.0678    0.3063 H   0  0  0  0  0  0  0  0  0  0  0  0
    2.4598    1.3224   -0.7300 H   0  0  0  0  0  0  0  0  0  0  0  0
    7.0278    0.8978   -0.9485 H   0  0  0  0  0  0  0  0  0  0  0  0
    2.9424   -2.5753    1.0156 H   0  0  0  0  0  0  0  0  0  0  0  0
    0.5320   -2.7385    1.3134 H   0  0  0  0  0  0  0  0  0  0  0  0
   -1.4967   -1.7944    1.2857 H   0  0  0  0  0  0  0  0  0  0  0  0
  1  2  2  0
  2  3  1  0
  3  4  2  0
  4  5  1  0
  5  6  2  0
  5  7  1  0
  7  8  1  0
  8  9  1  0
  9 10  2  0
 10 11  1  0
 11 12  1  0
 12 13  1  0
 13 14  2  0
 14 15  1  0
 15 16  1  0
 11 17  2  0
 17 18  1  0
 18 19  2  0
 19 20  1  0
  6  1  1  0
 19  9  1  0
 20  4  1  0
 16 12  2  0
  1 21  1  0
  2 22  1  0
  3 23  1  0
  6 24  1  0
  7 25  1  0
  7 26  1  0
  8 27  1  0
  8 28  1  0
 10 29  1  0
 14 30  1  0
 17 31  1  0
 18 32  1  0
 20 33  1  0
M  END
