
     RDKit          3D

 41 45  0  0  0  0  0  0  0  0999 V2000
   -7.4101    0.0774   -0.1253 C   0  0  0  0  0  0  0  0  0  0  0  0
   -6.8080   -1.0345   -0.6972 C   0  0  0  0  0  0  0  0  0  0  0  0
   -5.4134   -1.1423   -0.7179 C   0  0  0  0  0  0  0  0  0  0  0  0
   -4.5726   -0.1415   -0.1671 C   0  0  0  0  0  0  0  0  0  0  0  0
   -5.2133    0.9761    0.4069 C   0  0  0  0  0  0  0  0  0  0  0  0
   -6.6169    1.0798    0.4251 C   0  0  0  0  0  0  0  0  0  0  0  0
   -4.4113    1.9703    0.9533 C   0  0  0  0  0  0  0  0  0  0  0  0
   -3.0624    1.9461    0.9759 N   0  0  0  0  0  0  0  0  0  0  0  0
   -2.4435    0.8899    0.4337 C   0  0  0  0  0  0  0  0  0  0  0  0
   -1.0541    0.8784    0.4639 C   0  0  0  0  0  0  0  0  0  0  0  0
   -0.2872   -0.1691   -0.0700 C   0  0  0  0  0  0  0  0  0  0  0  0
    1.1833   -0.1422   -0.0145 C   0  0  0  0  0  0  0  0  0  0  0  0
    1.8600    0.0776    1.1921 C   0  0  0  0  0  0  0  0  0  0  0  0
    3.2602    0.1021    1.2422 C   0  0  0  0  0  0  0  0  0  0  0  0
    4.0444   -0.0953    0.0924 C   0  0  0  0  0  0  0  0  0  0  0  0
    5.5189   -0.0701    0.1725 C   0  0  0  0  0  0  0  0  0  0  0  0
    6.3549   -0.7720   -0.6976 C   0  0  0  0  0  0  0  0  0  0  0  0
    7.7115   -0.7460   -0.6267 N   0  0  0  0  0  0  0  0  0  0  0  0
    8.2175    0.0152    0.3656 C   0  0  0  0  0  0  0  0  0  0  0  0
    7.4092    0.7113    1.2448 C   0  0  0  0  0  0  0  0  0  0  0  0
    6.0581    0.6818    1.1709 N   0  0  0  0  0  0  0  0  0  0  0  0
    3.3588   -0.3043   -1.1164 C   0  0  0  0  0  0  0  0  0  0  0  0
    1.9573   -0.3299   -1.1680 C   0  0  0  0  0  0  0  0  0  0  0  0
   -0.9710   -1.2368   -0.6532 C   0  0  0  0  0  0  0  0  0  0  0  0
   -2.3678   -1.2494   -0.6960 C   0  0  0  0  0  0  0  0  0  0  0  0
   -3.1374   -0.1908   -0.1561 C   0  0  0  0  0  0  0  0  0  0  0  0
   -8.4932    0.1650   -0.1071 H   0  0  0  0  0  0  0  0  0  0  0  0
   -7.4192   -1.8229   -1.1296 H   0  0  0  0  0  0  0  0  0  0  0  0
   -4.9922   -2.0324   -1.1771 H   0  0  0  0  0  0  0  0  0  0  0  0
   -7.1000    1.9471    0.8708 H   0  0  0  0  0  0  0  0  0  0  0  0
   -4.8456    2.8564    1.4100 H   0  0  0  0  0  0  0  0  0  0  0  0
   -0.5518    1.7329    0.9159 H   0  0  0  0  0  0  0  0  0  0  0  0
    1.3031    0.2257    2.1156 H   0  0  0  0  0  0  0  0  0  0  0  0
    3.7428    0.2766    2.2034 H   0  0  0  0  0  0  0  0  0  0  0  0
    5.9603   -1.4026   -1.4867 H   0  0  0  0  0  0  0  0  0  0  0  0
    9.2983    0.0501    0.4381 H   0  0  0  0  0  0  0  0  0  0  0  0
    7.8272    1.3179    2.0399 H   0  0  0  0  0  0  0  0  0  0  0  0
    3.9006   -0.4283   -2.0514 H   0  0  0  0  0  0  0  0  0  0  0  0
    1.4727   -0.4790   -2.1314 H   0  0  0  0  0  0  0  0  0  0  0  0
   -0.4230   -2.0798   -1.0698 H   0  0  0  0  0  0  0  0  0  0  0  0
   -2.8451   -2.1085   -1.1584 H   0  0  0  0  0  0  0  0  0  0  0  0
  1  2  2  0
  2  3  1  0
  3  4  2  0
  4  5  1  0
  5  6  2  0
  5  7  1  0
  7  8  2  0
  8  9  1  0
  9 10  2  0
 10 11  1  0
 11 12  1  0
 12 13  2  0
 13 14  1  0
 14 15  2  0
 15 16  1  0
 16 17  2  0
 17 18  1  0
 18 19  2  0
 19 20  1  0
 20 21  2  0
 15 22  1  0
 22 23  2  0
 11 24  2  0
 24 25  1  0
 25 26  2  0
  6  1  1  0
 26  9  1  0
 26  4  1  0
 23 12  1  0
 21 16  1  0
  1 27  1  0
  2 28  1  0
  3 29  1  0
  6 30  1  0
  7 31  1  0
 10 32  1  0
 13 33  1  0
 14 34  1  0
 17 35  1  0
 19 36  1  0
 20 37  1  0
 22 38  1  0
 23 39  1  0
 24 40  1  0
 25 41  1  0
M  END
