
     RDKit          3D

 35 39  0  0  0  0  0  0  0  0999 V2000
    6.0494   -0.3547    0.3368 C   0  0  0  0  0  0  0  0  0  0  0  0
    5.4953   -0.6568   -0.8991 C   0  0  0  0  0  0  0  0  0  0  0  0
    4.1065   -0.6400   -1.0664 C   0  0  0  0  0  0  0  0  0  0  0  0
    3.2240   -0.3204   -0.0031 C   0  0  0  0  0  0  0  0  0  0  0  0
    3.8164   -0.0179    1.2405 C   0  0  0  0  0  0  0  0  0  0  0  0
    5.2143   -0.0362    1.4036 C   0  0  0  0  0  0  0  0  0  0  0  0
    2.9726    0.2985    2.2980 C   0  0  0  0  0  0  0  0  0  0  0  0
    1.6257    0.3376    2.2240 N   0  0  0  0  0  0  0  0  0  0  0  0
    1.0531    0.0533    1.0478 C   0  0  0  0  0  0  0  0  0  0  0  0
   -0.3345    0.0991    0.9858 C   0  0  0  0  0  0  0  0  0  0  0  0
   -1.0568   -0.1799   -0.1850 C   0  0  0  0  0  0  0  0  0  0  0  0
   -2.5291   -0.1238   -0.2055 C   0  0  0  0  0  0  0  0  0  0  0  0
   -3.2892   -0.8244    0.7535 C   0  0  0  0  0  0  0  0  0  0  0  0
   -4.6919   -0.8003    0.7707 C   0  0  0  0  0  0  0  0  0  0  0  0
   -5.3058   -0.0399   -0.2215 C   0  0  0  0  0  0  0  0  0  0  0  0
   -6.6097    0.2265   -0.5304 N   0  0  0  0  0  0  0  0  0  0  0  0
   -6.7182    1.0301   -1.6010 N   0  0  0  0  0  0  0  0  0  0  0  0
   -5.4877    1.3097   -2.0139 N   0  0  0  0  0  0  0  0  0  0  0  0
   -4.6051    0.6668   -1.1872 C   0  0  0  0  0  0  0  0  0  0  0  0
   -3.2034    0.6314   -1.1871 C   0  0  0  0  0  0  0  0  0  0  0  0
   -0.3281   -0.5137   -1.3277 C   0  0  0  0  0  0  0  0  0  0  0  0
    1.0682   -0.5655   -1.2919 C   0  0  0  0  0  0  0  0  0  0  0  0
    1.7923   -0.2848   -0.1082 C   0  0  0  0  0  0  0  0  0  0  0  0
    7.1279   -0.3663    0.4708 H   0  0  0  0  0  0  0  0  0  0  0  0
    6.1394   -0.9065   -1.7386 H   0  0  0  0  0  0  0  0  0  0  0  0
    3.7236   -0.8834   -2.0538 H   0  0  0  0  0  0  0  0  0  0  0  0
    5.6603    0.1994    2.3679 H   0  0  0  0  0  0  0  0  0  0  0  0
    3.3691    0.5413    3.2810 H   0  0  0  0  0  0  0  0  0  0  0  0
   -0.8699    0.3771    1.8928 H   0  0  0  0  0  0  0  0  0  0  0  0
   -2.7786   -1.4202    1.5109 H   0  0  0  0  0  0  0  0  0  0  0  0
   -5.2565   -1.3484    1.5171 H   0  0  0  0  0  0  0  0  0  0  0  0
   -7.4543   -0.0928   -0.0729 H   0  0  0  0  0  0  0  0  0  0  0  0
   -2.6606    1.1972   -1.9375 H   0  0  0  0  0  0  0  0  0  0  0  0
   -0.8397   -0.7493   -2.2592 H   0  0  0  0  0  0  0  0  0  0  0  0
    1.5811   -0.8334   -2.2112 H   0  0  0  0  0  0  0  0  0  0  0  0
  1  2  2  0
  2  3  1  0
  3  4  2  0
  4  5  1  0
  5  6  2  0
  5  7  1  0
  7  8  2  0
  8  9  1  0
  9 10  2  0
 10 11  1  0
 11 12  1  0
 12 13  2  0
 13 14  1  0
 14 15  2  0
 15 16  1  0
 16 17  1  0
 17 18  2  0
 18 19  1  0
 19 20  2  0
 11 21  2  0
 21 22  1  0
 22 23  2  0
  6  1  1  0
 23  9  1  0
 23  4  1  0
 20 12  1  0
 19 15  1  0
  1 24  1  0
  2 25  1  0
  3 26  1  0
  6 27  1  0
  7 28  1  0
 10 29  1  0
 13 30  1  0
 14 31  1  0
 16 32  1  0
 20 33  1  0
 21 34  1  0
 22 35  1  0
M  END
