
     RDKit          3D

 35 39  0  0  0  0  0  0  0  0999 V2000
    6.1970   -0.6983    0.4065 C   0  0  0  0  0  0  0  0  0  0  0  0
    5.3794   -1.6539    0.9936 C   0  0  0  0  0  0  0  0  0  0  0  0
    3.9884   -1.5273    0.9172 C   0  0  0  0  0  0  0  0  0  0  0  0
    3.3677   -0.4402    0.2507 C   0  0  0  0  0  0  0  0  0  0  0  0
    4.2237    0.5145   -0.3359 C   0  0  0  0  0  0  0  0  0  0  0  0
    5.6227    0.3825   -0.2562 C   0  0  0  0  0  0  0  0  0  0  0  0
    3.6373    1.5884   -0.9943 C   0  0  0  0  0  0  0  0  0  0  0  0
    2.3071    1.7858   -1.1142 N   0  0  0  0  0  0  0  0  0  0  0  0
    1.4865    0.8852   -0.5609 C   0  0  0  0  0  0  0  0  0  0  0  0
    0.1183    1.1067   -0.6955 C   0  0  0  0  0  0  0  0  0  0  0  0
   -0.8635    0.2487   -0.1681 C   0  0  0  0  0  0  0  0  0  0  0  0
   -2.3191    0.4922   -0.3161 C   0  0  0  0  0  0  0  0  0  0  0  0
   -2.8805    1.5751   -0.9802 C   0  0  0  0  0  0  0  0  0  0  0  0
   -4.2160    1.7719   -1.0997 N   0  0  0  0  0  0  0  0  0  0  0  0
   -5.0132    0.8586   -0.5384 C   0  0  0  0  0  0  0  0  0  0  0  0
   -6.3394    1.0256   -0.6396 N   0  0  0  0  0  0  0  0  0  0  0  0
   -7.1180    0.0881   -0.0634 C   0  0  0  0  0  0  0  0  0  0  0  0
   -6.5868   -0.9950    0.6006 C   0  0  0  0  0  0  0  0  0  0  0  0
   -5.2563   -1.1827    0.7146 N   0  0  0  0  0  0  0  0  0  0  0  0
   -4.4621   -0.2625    0.1491 C   0  0  0  0  0  0  0  0  0  0  0  0
   -3.1371   -0.4300    0.2506 N   0  0  0  0  0  0  0  0  0  0  0  0
   -0.3914   -0.8764    0.5218 C   0  0  0  0  0  0  0  0  0  0  0  0
    0.9774   -1.1239    0.6724 C   0  0  0  0  0  0  0  0  0  0  0  0
    1.9490   -0.2510    0.1359 C   0  0  0  0  0  0  0  0  0  0  0  0
    7.2781   -0.7934    0.4638 H   0  0  0  0  0  0  0  0  0  0  0  0
    5.8187   -2.5018    1.5134 H   0  0  0  0  0  0  0  0  0  0  0  0
    3.3929   -2.3018    1.3930 H   0  0  0  0  0  0  0  0  0  0  0  0
    6.2740    1.1253   -0.7126 H   0  0  0  0  0  0  0  0  0  0  0  0
    4.2438    2.3575   -1.4668 H   0  0  0  0  0  0  0  0  0  0  0  0
   -0.1618    2.0024   -1.2448 H   0  0  0  0  0  0  0  0  0  0  0  0
   -2.2833    2.3459   -1.4538 H   0  0  0  0  0  0  0  0  0  0  0  0
   -8.1885    0.2355   -0.1529 H   0  0  0  0  0  0  0  0  0  0  0  0
   -7.2165   -1.7470    1.0628 H   0  0  0  0  0  0  0  0  0  0  0  0
   -1.0931   -1.5877    0.9589 H   0  0  0  0  0  0  0  0  0  0  0  0
    1.2648   -2.0169    1.2201 H   0  0  0  0  0  0  0  0  0  0  0  0
  1  2  2  0
  2  3  1  0
  3  4  2  0
  4  5  1  0
  5  6  2  0
  5  7  1  0
  7  8  2  0
  8  9  1  0
  9 10  2  0
 10 11  1  0
 11 12  1  0
 12 13  2  0
 13 14  1  0
 14 15  2  0
 15 16  1  0
 16 17  2  0
 17 18  1  0
 18 19  2  0
 19 20  1  0
 20 21  2  0
 11 22  2  0
 22 23  1  0
 23 24  2  0
  6  1  1  0
 24  9  1  0
 24  4  1  0
 21 12  1  0
 20 15  1  0
  1 25  1  0
  2 26  1  0
  3 27  1  0
  6 28  1  0
  7 29  1  0
 10 30  1  0
 13 31  1  0
 17 32  1  0
 18 33  1  0
 22 34  1  0
 23 35  1  0
M  END
