
     RDKit          3D

 29 32  0  0  0  0  0  0  0  0999 V2000
    4.8109   -0.3634   -0.1717 C   0  0  0  0  0  0  0  0  0  0  0  0
    4.1317   -1.4851    0.2828 C   0  0  0  0  0  0  0  0  0  0  0  0
    2.7348   -1.4751    0.3577 C   0  0  0  0  0  0  0  0  0  0  0  0
    1.9691   -0.3424   -0.0196 C   0  0  0  0  0  0  0  0  0  0  0  0
    2.6871    0.7820   -0.4773 C   0  0  0  0  0  0  0  0  0  0  0  0
    4.0925    0.7667   -0.5507 C   0  0  0  0  0  0  0  0  0  0  0  0
    1.9592    1.9043   -0.8528 C   0  0  0  0  0  0  0  0  0  0  0  0
    0.6135    1.9986   -0.8125 N   0  0  0  0  0  0  0  0  0  0  0  0
   -0.0776    0.9377   -0.3801 C   0  0  0  0  0  0  0  0  0  0  0  0
   -1.4620    1.0529   -0.3452 C   0  0  0  0  0  0  0  0  0  0  0  0
   -2.2934    0.0116    0.0863 C   0  0  0  0  0  0  0  0  0  0  0  0
   -3.7376    0.1569    0.1147 C   0  0  0  0  0  0  0  0  0  0  0  0
   -4.7265   -0.4922    0.8894 C   0  0  0  0  0  0  0  0  0  0  0  0
   -5.9611   -0.0766    0.5961 N   0  0  0  0  0  0  0  0  0  0  0  0
   -5.7962    0.8713   -0.4001 O   0  0  0  0  0  0  0  0  0  0  0  0
   -4.4752    1.0027   -0.6811 C   0  0  0  0  0  0  0  0  0  0  0  0
   -1.6980   -1.1786    0.4989 C   0  0  0  0  0  0  0  0  0  0  0  0
   -0.3072   -1.3162    0.4717 C   0  0  0  0  0  0  0  0  0  0  0  0
    0.5360   -0.2667    0.0331 C   0  0  0  0  0  0  0  0  0  0  0  0
    5.8961   -0.3673   -0.2312 H   0  0  0  0  0  0  0  0  0  0  0  0
    4.6844   -2.3726    0.5810 H   0  0  0  0  0  0  0  0  0  0  0  0
    2.2523   -2.3787    0.7201 H   0  0  0  0  0  0  0  0  0  0  0  0
    4.6362    1.6402   -0.9053 H   0  0  0  0  0  0  0  0  0  0  0  0
    2.4556    2.8021   -1.2136 H   0  0  0  0  0  0  0  0  0  0  0  0
   -1.8882    2.0037   -0.6591 H   0  0  0  0  0  0  0  0  0  0  0  0
   -4.6058   -1.2440    1.6564 H   0  0  0  0  0  0  0  0  0  0  0  0
   -4.2412    1.7160   -1.4577 H   0  0  0  0  0  0  0  0  0  0  0  0
   -2.2969   -2.0221    0.8348 H   0  0  0  0  0  0  0  0  0  0  0  0
    0.1076   -2.2656    0.7991 H   0  0  0  0  0  0  0  0  0  0  0  0
  1  2  2  0
  2  3  1  0
  3  4  2  0
  4  5  1  0
  5  6  2  0
  5  7  1  0
  7  8  2  0
  8  9  1  0
  9 10  2  0
 10 11  1  0
 11 12  1  0
 12 13  1  0
 13 14  2  0
 14 15  1  0
 15 16  1  0
 11 17  2  0
 17 18  1  0
 18 19  2  0
  6  1  1  0
 19  9  1  0
 19  4  1  0
 16 12  2  0
  1 20  1  0
  2 21  1  0
  3 22  1  0
  6 23  1  0
  7 24  1  0
 10 25  1  0
 13 26  1  0
 16 27  1  0
 17 28  1  0
 18 29  1  0
M  END
