
     RDKit          3D

 35 39  0  0  0  0  0  0  0  0999 V2000
   -5.9719   -0.4116   -2.1842 C   0  0  0  0  0  0  0  0  0  0  0  0
   -5.5126    0.8563   -1.8562 C   0  0  0  0  0  0  0  0  0  0  0  0
   -4.2053    1.0279   -1.3888 C   0  0  0  0  0  0  0  0  0  0  0  0
   -3.3119   -0.0628   -1.2334 C   0  0  0  0  0  0  0  0  0  0  0  0
   -3.8072   -1.3384   -1.5747 C   0  0  0  0  0  0  0  0  0  0  0  0
   -5.1234   -1.5058   -2.0445 C   0  0  0  0  0  0  0  0  0  0  0  0
   -2.9514   -2.4233   -1.4312 C   0  0  0  0  0  0  0  0  0  0  0  0
   -1.6790   -2.3470   -0.9887 N   0  0  0  0  0  0  0  0  0  0  0  0
   -1.1976   -1.1420   -0.6617 C   0  0  0  0  0  0  0  0  0  0  0  0
    0.1134   -1.0800   -0.2081 C   0  0  0  0  0  0  0  0  0  0  0  0
    0.7281    0.1229    0.1639 C   0  0  0  0  0  0  0  0  0  0  0  0
    2.1113    0.1144    0.6325 C   0  0  0  0  0  0  0  0  0  0  0  0
    2.9340   -0.9106    0.7728 N   0  0  0  0  0  0  0  0  0  0  0  0
    4.0898   -0.3416    1.2425 C   0  0  0  0  0  0  0  0  0  0  0  0
    5.3241   -0.9080    1.5848 C   0  0  0  0  0  0  0  0  0  0  0  0
    6.3385   -0.0540    2.0452 C   0  0  0  0  0  0  0  0  0  0  0  0
    6.1266    1.3263    2.1605 C   0  0  0  0  0  0  0  0  0  0  0  0
    4.8977    1.9065    1.8219 C   0  0  0  0  0  0  0  0  0  0  0  0
    3.9215    1.0267    1.3710 C   0  0  0  0  0  0  0  0  0  0  0  0
    2.6506    1.3295    0.9805 O   0  0  0  0  0  0  0  0  0  0  0  0
   -0.0169    1.2977    0.0703 C   0  0  0  0  0  0  0  0  0  0  0  0
   -1.3381    1.2602   -0.3835 C   0  0  0  0  0  0  0  0  0  0  0  0
   -1.9604    0.0448   -0.7598 C   0  0  0  0  0  0  0  0  0  0  0  0
   -6.9868   -0.5493   -2.5476 H   0  0  0  0  0  0  0  0  0  0  0  0
   -6.1680    1.7172   -1.9620 H   0  0  0  0  0  0  0  0  0  0  0  0
   -3.8955    2.0407   -1.1462 H   0  0  0  0  0  0  0  0  0  0  0  0
   -5.4944   -2.4952   -2.3047 H   0  0  0  0  0  0  0  0  0  0  0  0
   -3.2743   -3.4319   -1.6778 H   0  0  0  0  0  0  0  0  0  0  0  0
    0.6775   -2.0106   -0.1428 H   0  0  0  0  0  0  0  0  0  0  0  0
    5.4838   -1.9765    1.4941 H   0  0  0  0  0  0  0  0  0  0  0  0
    7.3053   -0.4737    2.3166 H   0  0  0  0  0  0  0  0  0  0  0  0
    6.9339    1.9617    2.5208 H   0  0  0  0  0  0  0  0  0  0  0  0
    4.7152    2.9702    1.9042 H   0  0  0  0  0  0  0  0  0  0  0  0
    0.4176    2.2560    0.3479 H   0  0  0  0  0  0  0  0  0  0  0  0
   -1.8745    2.2033   -0.4377 H   0  0  0  0  0  0  0  0  0  0  0  0
  1  2  2  0
  2  3  1  0
  3  4  2  0
  4  5  1  0
  5  6  2  0
  5  7  1  0
  7  8  2  0
  8  9  1  0
  9 10  2  0
 10 11  1  0
 11 12  1  0
 12 13  2  0
 13 14  1  0
 14 15  2  0
 15 16  1  0
 16 17  2  0
 17 18  1  0
 18 19  2  0
 19 20  1  0
 11 21  2  0
 21 22  1  0
 22 23  2  0
  6  1  1  0
 23  9  1  0
 23  4  1  0
 20 12  1  0
 19 14  1  0
  1 24  1  0
  2 25  1  0
  3 26  1  0
  6 27  1  0
  7 28  1  0
 10 29  1  0
 15 30  1  0
 16 31  1  0
 17 32  1  0
 18 33  1  0
 21 34  1  0
 22 35  1  0
M  END
