
     RDKit          3D

 35 39  0  0  0  0  0  0  0  0999 V2000
   -5.6612   -1.5402   -1.5668 C   0  0  0  0  0  0  0  0  0  0  0  0
   -6.3270   -0.6107   -0.7756 C   0  0  0  0  0  0  0  0  0  0  0  0
   -5.5959    0.2783    0.0125 C   0  0  0  0  0  0  0  0  0  0  0  0
   -4.1928    0.2496    0.0120 C   0  0  0  0  0  0  0  0  0  0  0  0
   -3.5145   -0.6746   -0.8004 C   0  0  0  0  0  0  0  0  0  0  0  0
   -4.2654   -1.5754   -1.5735 C   0  0  0  0  0  0  0  0  0  0  0  0
   -2.1123   -0.7756   -0.8124 N   0  0  0  0  0  0  0  0  0  0  0  0
   -1.2036    0.0601   -0.1391 C   0  0  0  0  0  0  0  0  0  0  0  0
    0.1750   -0.1644   -0.3059 C   0  0  0  0  0  0  0  0  0  0  0  0
    1.1410    0.6040    0.3669 C   0  0  0  0  0  0  0  0  0  0  0  0
    2.5787    0.3577    0.1684 C   0  0  0  0  0  0  0  0  0  0  0  0
    3.1429    0.4021   -1.1226 C   0  0  0  0  0  0  0  0  0  0  0  0
    4.5073    0.1758   -1.3570 C   0  0  0  0  0  0  0  0  0  0  0  0
    5.2865   -0.0988   -0.2354 C   0  0  0  0  0  0  0  0  0  0  0  0
    6.6146   -0.3648   -0.0556 N   0  0  0  0  0  0  0  0  0  0  0  0
    6.9149   -0.5716    1.2368 N   0  0  0  0  0  0  0  0  0  0  0  0
    5.7905   -0.4443    1.9311 N   0  0  0  0  0  0  0  0  0  0  0  0
    4.7794   -0.1538    1.0543 C   0  0  0  0  0  0  0  0  0  0  0  0
    3.4132    0.0757    1.2691 C   0  0  0  0  0  0  0  0  0  0  0  0
    0.6944    1.6077    1.2351 C   0  0  0  0  0  0  0  0  0  0  0  0
   -0.6713    1.8332    1.4250 C   0  0  0  0  0  0  0  0  0  0  0  0
   -1.6251    1.0621    0.7481 C   0  0  0  0  0  0  0  0  0  0  0  0
   -3.3452    1.4180    1.0622 S   0  0  0  0  0  0  0  0  0  0  0  0
   -6.2260   -2.2420   -2.1751 H   0  0  0  0  0  0  0  0  0  0  0  0
   -7.4134   -0.5798   -0.7645 H   0  0  0  0  0  0  0  0  0  0  0  0
   -6.1297    0.9946    0.6333 H   0  0  0  0  0  0  0  0  0  0  0  0
   -3.7649   -2.3181   -2.1893 H   0  0  0  0  0  0  0  0  0  0  0  0
   -1.7225   -1.3418   -1.5538 H   0  0  0  0  0  0  0  0  0  0  0  0
    0.5053   -0.9654   -0.9644 H   0  0  0  0  0  0  0  0  0  0  0  0
    2.5063    0.6333   -1.9770 H   0  0  0  0  0  0  0  0  0  0  0  0
    4.9232    0.2191   -2.3576 H   0  0  0  0  0  0  0  0  0  0  0  0
    7.3555   -0.4210   -0.7429 H   0  0  0  0  0  0  0  0  0  0  0  0
    3.0180    0.0227    2.2787 H   0  0  0  0  0  0  0  0  0  0  0  0
    1.4089    2.2300    1.7709 H   0  0  0  0  0  0  0  0  0  0  0  0
   -0.9849    2.6182    2.1099 H   0  0  0  0  0  0  0  0  0  0  0  0
  1  2  2  0
  2  3  1  0
  3  4  2  0
  4  5  1  0
  5  6  2  0
  5  7  1  0
  7  8  1  0
  8  9  2  0
  9 10  1  0
 10 11  1  0
 11 12  2  0
 12 13  1  0
 13 14  2  0
 14 15  1  0
 15 16  1  0
 16 17  2  0
 17 18  1  0
 18 19  2  0
 10 20  2  0
 20 21  1  0
 21 22  2  0
 22 23  1  0
  6  1  1  0
 22  8  1  0
 23  4  1  0
 19 11  1  0
 18 14  1  0
  1 24  1  0
  2 25  1  0
  3 26  1  0
  6 27  1  0
  7 28  1  0
  9 29  1  0
 12 30  1  0
 13 31  1  0
 15 32  1  0
 19 33  1  0
 20 34  1  0
 21 35  1  0
M  END
