
     RDKit          3D

 42 47  0  0  0  0  0  0  0  0999 V2000
   -6.9937    1.7497    1.1427 C   0  0  0  0  0  0  0  0  0  0  0  0
   -7.6956    0.6960    0.5679 C   0  0  0  0  0  0  0  0  0  0  0  0
   -7.0005   -0.3815    0.0187 C   0  0  0  0  0  0  0  0  0  0  0  0
   -5.5974   -0.4122    0.0339 C   0  0  0  0  0  0  0  0  0  0  0  0
   -4.8827    0.6594    0.5954 C   0  0  0  0  0  0  0  0  0  0  0  0
   -5.5978    1.7274    1.1618 C   0  0  0  0  0  0  0  0  0  0  0  0
   -3.4790    0.6652    0.6751 N   0  0  0  0  0  0  0  0  0  0  0  0
   -2.6026   -0.2890    0.1280 C   0  0  0  0  0  0  0  0  0  0  0  0
   -1.2166   -0.0918    0.2635 C   0  0  0  0  0  0  0  0  0  0  0  0
   -0.2823   -1.0237   -0.2202 C   0  0  0  0  0  0  0  0  0  0  0  0
    1.1634   -0.7903   -0.0750 C   0  0  0  0  0  0  0  0  0  0  0  0
    1.9695   -1.7113    0.6111 C   0  0  0  0  0  0  0  0  0  0  0  0
    3.3491   -1.5121    0.7658 C   0  0  0  0  0  0  0  0  0  0  0  0
    3.9474   -0.3612    0.2184 C   0  0  0  0  0  0  0  0  0  0  0  0
    3.1368    0.5484   -0.4641 C   0  0  0  0  0  0  0  0  0  0  0  0
    1.7565    0.3624   -0.6235 C   0  0  0  0  0  0  0  0  0  0  0  0
    3.9520    1.5682   -0.8999 N   0  0  0  0  0  0  0  0  0  0  0  0
    5.2433    1.3453   -0.5165 C   0  0  0  0  0  0  0  0  0  0  0  0
    6.2704    2.1701   -0.7930 N   0  0  0  0  0  0  0  0  0  0  0  0
    7.4489    1.7216   -0.3029 C   0  0  0  0  0  0  0  0  0  0  0  0
    7.6348    0.5463    0.4140 C   0  0  0  0  0  0  0  0  0  0  0  0
    6.5332   -0.2709    0.6720 C   0  0  0  0  0  0  0  0  0  0  0  0
    5.2824    0.1472    0.1855 C   0  0  0  0  0  0  0  0  0  0  0  0
   -0.7673   -2.1816   -0.8400 C   0  0  0  0  0  0  0  0  0  0  0  0
   -2.1410   -2.4013   -0.9679 C   0  0  0  0  0  0  0  0  0  0  0  0
   -3.0638   -1.4657   -0.4819 C   0  0  0  0  0  0  0  0  0  0  0  0
   -4.7974   -1.8387   -0.6814 S   0  0  0  0  0  0  0  0  0  0  0  0
   -7.5304    2.5871    1.5812 H   0  0  0  0  0  0  0  0  0  0  0  0
   -8.7823    0.7068    0.5517 H   0  0  0  0  0  0  0  0  0  0  0  0
   -7.5623   -1.2032   -0.4201 H   0  0  0  0  0  0  0  0  0  0  0  0
   -5.0686    2.5548    1.6273 H   0  0  0  0  0  0  0  0  0  0  0  0
   -3.0607    1.5517    0.9235 H   0  0  0  0  0  0  0  0  0  0  0  0
   -0.8536    0.8010    0.7690 H   0  0  0  0  0  0  0  0  0  0  0  0
    1.5225   -2.6024    1.0492 H   0  0  0  0  0  0  0  0  0  0  0  0
    3.9464   -2.2412    1.3054 H   0  0  0  0  0  0  0  0  0  0  0  0
    1.1602    1.0873   -1.1710 H   0  0  0  0  0  0  0  0  0  0  0  0
    3.6601    2.3753   -1.4283 H   0  0  0  0  0  0  0  0  0  0  0  0
    8.2972    2.3696   -0.5125 H   0  0  0  0  0  0  0  0  0  0  0  0
    8.6224    0.2697    0.7670 H   0  0  0  0  0  0  0  0  0  0  0  0
    6.6402   -1.1958    1.2283 H   0  0  0  0  0  0  0  0  0  0  0  0
   -0.0755   -2.9231   -1.2352 H   0  0  0  0  0  0  0  0  0  0  0  0
   -2.4855   -3.3131   -1.4510 H   0  0  0  0  0  0  0  0  0  0  0  0
  1  2  2  0
  2  3  1  0
  3  4  2  0
  4  5  1  0
  5  6  2  0
  5  7  1  0
  7  8  1  0
  8  9  2  0
  9 10  1  0
 10 11  1  0
 11 12  2  0
 12 13  1  0
 13 14  2  0
 14 15  1  0
 15 16  2  0
 15 17  1  0
 17 18  1  0
 18 19  2  0
 19 20  1  0
 20 21  2  0
 21 22  1  0
 22 23  2  0
 10 24  2  0
 24 25  1  0
 25 26  2  0
 26 27  1  0
  6  1  1  0
 26  8  1  0
 27  4  1  0
 16 11  1  0
 23 18  1  0
 23 14  1  0
  1 28  1  0
  2 29  1  0
  3 30  1  0
  6 31  1  0
  7 32  1  0
  9 33  1  0
 12 34  1  0
 13 35  1  0
 16 36  1  0
 17 37  1  0
 20 38  1  0
 21 39  1  0
 22 40  1  0
 24 41  1  0
 25 42  1  0
M  END
