
     RDKit          3D

 37 41  0  0  0  0  0  0  0  0999 V2000
    6.1965   -1.0961   -0.5925 C   0  0  0  0  0  0  0  0  0  0  0  0
    6.7380    0.0043    0.0627 C   0  0  0  0  0  0  0  0  0  0  0  0
    5.8930    0.9767    0.5978 C   0  0  0  0  0  0  0  0  0  0  0  0
    4.4992    0.8543    0.4881 C   0  0  0  0  0  0  0  0  0  0  0  0
    3.9462   -0.2664   -0.1542 C   0  0  0  0  0  0  0  0  0  0  0  0
    4.8110   -1.2258   -0.7060 C   0  0  0  0  0  0  0  0  0  0  0  0
    2.5598   -0.4212   -0.3329 N   0  0  0  0  0  0  0  0  0  0  0  0
    1.5494    0.4065    0.1894 C   0  0  0  0  0  0  0  0  0  0  0  0
    0.2052    0.0652   -0.0477 C   0  0  0  0  0  0  0  0  0  0  0  0
   -0.8586    0.8663    0.4039 C   0  0  0  0  0  0  0  0  0  0  0  0
   -2.2570    0.4830    0.1512 C   0  0  0  0  0  0  0  0  0  0  0  0
   -3.1547    1.3710   -0.4514 C   0  0  0  0  0  0  0  0  0  0  0  0
   -4.4795    0.9932   -0.6880 C   0  0  0  0  0  0  0  0  0  0  0  0
   -4.9445   -0.2651   -0.3359 C   0  0  0  0  0  0  0  0  0  0  0  0
   -6.2288   -0.5934   -0.5805 N   0  0  0  0  0  0  0  0  0  0  0  0
   -6.6110   -1.8343   -0.2104 C   0  0  0  0  0  0  0  0  0  0  0  0
   -5.7420   -2.7249    0.3848 C   0  0  0  0  0  0  0  0  0  0  0  0
   -4.4520   -2.4143    0.6362 N   0  0  0  0  0  0  0  0  0  0  0  0
   -4.0513   -1.1785    0.2751 C   0  0  0  0  0  0  0  0  0  0  0  0
   -2.7361   -0.7891    0.5053 C   0  0  0  0  0  0  0  0  0  0  0  0
   -0.5446    2.0421    1.0969 C   0  0  0  0  0  0  0  0  0  0  0  0
    0.7853    2.4064    1.3236 C   0  0  0  0  0  0  0  0  0  0  0  0
    1.8363    1.6005    0.8676 C   0  0  0  0  0  0  0  0  0  0  0  0
    3.5006    2.1552    1.1928 S   0  0  0  0  0  0  0  0  0  0  0  0
    6.8504   -1.8515   -1.0207 H   0  0  0  0  0  0  0  0  0  0  0  0
    7.8158    0.1117    0.1526 H   0  0  0  0  0  0  0  0  0  0  0  0
    6.3303    1.8368    1.1001 H   0  0  0  0  0  0  0  0  0  0  0  0
    4.4085   -2.0865   -1.2338 H   0  0  0  0  0  0  0  0  0  0  0  0
    2.2617   -1.3451   -0.6174 H   0  0  0  0  0  0  0  0  0  0  0  0
   -0.0179   -0.8402   -0.6092 H   0  0  0  0  0  0  0  0  0  0  0  0
   -2.8292    2.3644   -0.7554 H   0  0  0  0  0  0  0  0  0  0  0  0
   -5.1628    1.6948   -1.1602 H   0  0  0  0  0  0  0  0  0  0  0  0
   -7.6446   -2.0935   -0.4079 H   0  0  0  0  0  0  0  0  0  0  0  0
   -6.0588   -3.7189    0.6784 H   0  0  0  0  0  0  0  0  0  0  0  0
   -2.0724   -1.5039    0.9885 H   0  0  0  0  0  0  0  0  0  0  0  0
   -1.3356    2.6871    1.4749 H   0  0  0  0  0  0  0  0  0  0  0  0
    0.9941    3.3291    1.8610 H   0  0  0  0  0  0  0  0  0  0  0  0
  1  2  2  0
  2  3  1  0
  3  4  2  0
  4  5  1  0
  5  6  2  0
  5  7  1  0
  7  8  1  0
  8  9  2  0
  9 10  1  0
 10 11  1  0
 11 12  2  0
 12 13  1  0
 13 14  2  0
 14 15  1  0
 15 16  2  0
 16 17  1  0
 17 18  2  0
 18 19  1  0
 19 20  2  0
 10 21  2  0
 21 22  1  0
 22 23  2  0
 23 24  1  0
  6  1  1  0
 23  8  1  0
 24  4  1  0
 20 11  1  0
 19 14  1  0
  1 25  1  0
  2 26  1  0
  3 27  1  0
  6 28  1  0
  7 29  1  0
  9 30  1  0
 12 31  1  0
 13 32  1  0
 16 33  1  0
 17 34  1  0
 20 35  1  0
 21 36  1  0
 22 37  1  0
M  END
