
     RDKit          3D

 29 32  0  0  0  0  0  0  0  0999 V2000
   -4.4466    2.1001   -0.0384 C   0  0  0  0  0  0  0  0  0  0  0  0
   -5.0485    0.9663   -0.5727 C   0  0  0  0  0  0  0  0  0  0  0  0
   -4.2803   -0.1684   -0.8329 C   0  0  0  0  0  0  0  0  0  0  0  0
   -2.9022   -0.1775   -0.5673 C   0  0  0  0  0  0  0  0  0  0  0  0
   -2.2846    0.9728   -0.0479 C   0  0  0  0  0  0  0  0  0  0  0  0
   -3.0762    2.0998    0.2286 C   0  0  0  0  0  0  0  0  0  0  0  0
   -0.9171    1.0081    0.2812 N   0  0  0  0  0  0  0  0  0  0  0  0
    0.0313   -0.0009    0.0321 C   0  0  0  0  0  0  0  0  0  0  0  0
    1.3737    0.2307    0.3854 C   0  0  0  0  0  0  0  0  0  0  0  0
    2.3610   -0.7495    0.2016 C   0  0  0  0  0  0  0  0  0  0  0  0
    3.7457   -0.4988    0.5538 C   0  0  0  0  0  0  0  0  0  0  0  0
    4.9512   -1.0024    0.0143 C   0  0  0  0  0  0  0  0  0  0  0  0
    6.0293   -0.5256    0.6418 N   0  0  0  0  0  0  0  0  0  0  0  0
    5.5338    0.3098    1.6293 O   0  0  0  0  0  0  0  0  0  0  0  0
    4.1781    0.3177    1.5725 C   0  0  0  0  0  0  0  0  0  0  0  0
    1.9880   -1.9842   -0.3369 C   0  0  0  0  0  0  0  0  0  0  0  0
    0.6544   -2.2363   -0.6692 C   0  0  0  0  0  0  0  0  0  0  0  0
   -0.3296   -1.2566   -0.4805 C   0  0  0  0  0  0  0  0  0  0  0  0
   -2.0055   -1.6792   -0.9220 S   0  0  0  0  0  0  0  0  0  0  0  0
   -5.0426    2.9834    0.1764 H   0  0  0  0  0  0  0  0  0  0  0  0
   -6.1154    0.9600   -0.7808 H   0  0  0  0  0  0  0  0  0  0  0  0
   -4.7661   -1.0514   -1.2425 H   0  0  0  0  0  0  0  0  0  0  0  0
   -2.6284    2.9917    0.6593 H   0  0  0  0  0  0  0  0  0  0  0  0
   -0.5395    1.9333    0.4389 H   0  0  0  0  0  0  0  0  0  0  0  0
    1.6446    1.1995    0.7981 H   0  0  0  0  0  0  0  0  0  0  0  0
    5.0941   -1.6880   -0.8090 H   0  0  0  0  0  0  0  0  0  0  0  0
    3.6918    0.9326    2.3152 H   0  0  0  0  0  0  0  0  0  0  0  0
    2.7183   -2.7760   -0.4875 H   0  0  0  0  0  0  0  0  0  0  0  0
    0.3872   -3.2111   -1.0726 H   0  0  0  0  0  0  0  0  0  0  0  0
  1  2  2  0
  2  3  1  0
  3  4  2  0
  4  5  1  0
  5  6  2  0
  5  7  1  0
  7  8  1  0
  8  9  2  0
  9 10  1  0
 10 11  1  0
 11 12  1  0
 12 13  2  0
 13 14  1  0
 14 15  1  0
 10 16  2  0
 16 17  1  0
 17 18  2  0
 18 19  1  0
  6  1  1  0
 18  8  1  0
 19  4  1  0
 15 11  2  0
  1 20  1  0
  2 21  1  0
  3 22  1  0
  6 23  1  0
  7 24  1  0
  9 25  1  0
 12 26  1  0
 15 27  1  0
 16 28  1  0
 17 29  1  0
M  END
