
     RDKit          3D

 40 44  0  0  0  0  0  0  0  0999 V2000
   -7.5658    0.3221    0.0438 C   0  0  0  0  0  0  0  0  0  0  0  0
   -7.1719   -0.1794   -1.1988 C   0  0  0  0  0  0  0  0  0  0  0  0
   -5.8165   -0.3495   -1.4871 C   0  0  0  0  0  0  0  0  0  0  0  0
   -4.8591   -0.0168   -0.5299 C   0  0  0  0  0  0  0  0  0  0  0  0
   -5.2523    0.4839    0.7105 C   0  0  0  0  0  0  0  0  0  0  0  0
   -6.6052    0.6546    1.0007 C   0  0  0  0  0  0  0  0  0  0  0  0
   -4.3459    0.8249    1.6827 O   0  0  0  0  0  0  0  0  0  0  0  0
   -3.0277    0.6399    1.3513 C   0  0  0  0  0  0  0  0  0  0  0  0
   -2.0699    0.9725    2.3043 C   0  0  0  0  0  0  0  0  0  0  0  0
   -0.7129    0.8015    2.0126 C   0  0  0  0  0  0  0  0  0  0  0  0
   -0.2942    0.2961    0.7679 C   0  0  0  0  0  0  0  0  0  0  0  0
    1.1351    0.1171    0.4654 C   0  0  0  0  0  0  0  0  0  0  0  0
    2.0459    1.1719    0.6142 C   0  0  0  0  0  0  0  0  0  0  0  0
    3.4078    1.0035    0.3241 C   0  0  0  0  0  0  0  0  0  0  0  0
    3.9154   -0.2288   -0.1214 C   0  0  0  0  0  0  0  0  0  0  0  0
    5.3458   -0.4317   -0.4278 C   0  0  0  0  0  0  0  0  0  0  0  0
    6.3788    0.2764    0.1889 C   0  0  0  0  0  0  0  0  0  0  0  0
    7.6946    0.0929   -0.0957 N   0  0  0  0  0  0  0  0  0  0  0  0
    7.9518   -0.8443   -1.0314 C   0  0  0  0  0  0  0  0  0  0  0  0
    6.9459   -1.5643   -1.6484 C   0  0  0  0  0  0  0  0  0  0  0  0
    5.6362   -1.3787   -1.3616 N   0  0  0  0  0  0  0  0  0  0  0  0
    2.9931   -1.2783   -0.2767 C   0  0  0  0  0  0  0  0  0  0  0  0
    1.6322   -1.1114    0.0120 C   0  0  0  0  0  0  0  0  0  0  0  0
   -1.2799   -0.0332   -0.1785 C   0  0  0  0  0  0  0  0  0  0  0  0
   -2.6342    0.1388    0.1135 C   0  0  0  0  0  0  0  0  0  0  0  0
   -3.5401   -0.2019   -0.8598 O   0  0  0  0  0  0  0  0  0  0  0  0
   -8.6218    0.4538    0.2665 H   0  0  0  0  0  0  0  0  0  0  0  0
   -7.9213   -0.4377   -1.9429 H   0  0  0  0  0  0  0  0  0  0  0  0
   -5.5085   -0.7393   -2.4531 H   0  0  0  0  0  0  0  0  0  0  0  0
   -6.9099    1.0447    1.9676 H   0  0  0  0  0  0  0  0  0  0  0  0
   -2.3748    1.3603    3.2721 H   0  0  0  0  0  0  0  0  0  0  0  0
    0.0224    1.0551    2.7742 H   0  0  0  0  0  0  0  0  0  0  0  0
    1.6981    2.1502    0.9419 H   0  0  0  0  0  0  0  0  0  0  0  0
    4.0581    1.8686    0.4336 H   0  0  0  0  0  0  0  0  0  0  0  0
    6.1861    1.0178    0.9564 H   0  0  0  0  0  0  0  0  0  0  0  0
    8.9960   -1.0048   -1.2731 H   0  0  0  0  0  0  0  0  0  0  0  0
    7.1651   -2.3167   -2.3972 H   0  0  0  0  0  0  0  0  0  0  0  0
    3.3350   -2.2521   -0.6262 H   0  0  0  0  0  0  0  0  0  0  0  0
    0.9644   -1.9616   -0.1143 H   0  0  0  0  0  0  0  0  0  0  0  0
   -0.9957   -0.4160   -1.1562 H   0  0  0  0  0  0  0  0  0  0  0  0
  1  2  2  0
  2  3  1  0
  3  4  2  0
  4  5  1  0
  5  6  2  0
  5  7  1  0
  7  8  1  0
  8  9  2  0
  9 10  1  0
 10 11  2  0
 11 12  1  0
 12 13  2  0
 13 14  1  0
 14 15  2  0
 15 16  1  0
 16 17  2  0
 17 18  1  0
 18 19  2  0
 19 20  1  0
 20 21  2  0
 15 22  1  0
 22 23  2  0
 11 24  1  0
 24 25  2  0
 25 26  1  0
  6  1  1  0
 25  8  1  0
 26  4  1  0
 23 12  1  0
 21 16  1  0
  1 27  1  0
  2 28  1  0
  3 29  1  0
  6 30  1  0
  9 31  1  0
 10 32  1  0
 13 33  1  0
 14 34  1  0
 17 35  1  0
 19 36  1  0
 20 37  1  0
 22 38  1  0
 23 39  1  0
 24 40  1  0
M  END
