
     RDKit          3D

 41 46  0  0  0  0  0  0  0  0999 V2000
   -7.7479   -0.3352    0.3265 C   0  0  0  0  0  0  0  0  0  0  0  0
   -7.2654   -0.8663    1.5247 C   0  0  0  0  0  0  0  0  0  0  0  0
   -5.8900   -0.9491    1.7498 C   0  0  0  0  0  0  0  0  0  0  0  0
   -5.0015   -0.4996    0.7740 C   0  0  0  0  0  0  0  0  0  0  0  0
   -5.4833    0.0304   -0.4222 C   0  0  0  0  0  0  0  0  0  0  0  0
   -6.8562    0.1142   -0.6493 C   0  0  0  0  0  0  0  0  0  0  0  0
   -4.6469    0.4846   -1.4107 O   0  0  0  0  0  0  0  0  0  0  0  0
   -3.3056    0.3820   -1.1421 C   0  0  0  0  0  0  0  0  0  0  0  0
   -2.4166    0.8291   -2.1147 C   0  0  0  0  0  0  0  0  0  0  0  0
   -1.0395    0.7449   -1.8866 C   0  0  0  0  0  0  0  0  0  0  0  0
   -0.5322    0.2148   -0.6860 C   0  0  0  0  0  0  0  0  0  0  0  0
    0.9187    0.1289   -0.4494 C   0  0  0  0  0  0  0  0  0  0  0  0
    1.7573   -0.5191   -1.3592 C   0  0  0  0  0  0  0  0  0  0  0  0
    3.1384   -0.6066   -1.1419 C   0  0  0  0  0  0  0  0  0  0  0  0
    3.7280   -0.0356    0.0135 C   0  0  0  0  0  0  0  0  0  0  0  0
    2.8845    0.6094    0.9159 C   0  0  0  0  0  0  0  0  0  0  0  0
    1.4923    0.6978    0.7002 C   0  0  0  0  0  0  0  0  0  0  0  0
    3.7567    1.2424    2.2503 S   0  0  0  0  0  0  0  0  0  0  0  0
    5.2623    0.6723    1.6591 C   0  0  0  0  0  0  0  0  0  0  0  0
    6.5227    0.8295    2.2703 C   0  0  0  0  0  0  0  0  0  0  0  0
    7.6518    0.2976    1.6451 C   0  0  0  0  0  0  0  0  0  0  0  0
    7.5350   -0.3762    0.4390 C   0  0  0  0  0  0  0  0  0  0  0  0
    6.2823   -0.5292   -0.1629 C   0  0  0  0  0  0  0  0  0  0  0  0
    5.1133   -0.0007    0.4459 C   0  0  0  0  0  0  0  0  0  0  0  0
   -1.4492   -0.2299    0.2819 C   0  0  0  0  0  0  0  0  0  0  0  0
   -2.8237   -0.1461    0.0525 C   0  0  0  0  0  0  0  0  0  0  0  0
   -3.6595   -0.6017    1.0414 O   0  0  0  0  0  0  0  0  0  0  0  0
   -8.8193   -0.2714    0.1529 H   0  0  0  0  0  0  0  0  0  0  0  0
   -7.9612   -1.2157    2.2835 H   0  0  0  0  0  0  0  0  0  0  0  0
   -5.5131   -1.3618    2.6812 H   0  0  0  0  0  0  0  0  0  0  0  0
   -7.2300    0.5275   -1.5816 H   0  0  0  0  0  0  0  0  0  0  0  0
   -2.7904    1.2449   -3.0461 H   0  0  0  0  0  0  0  0  0  0  0  0
   -0.3581    1.1105   -2.6530 H   0  0  0  0  0  0  0  0  0  0  0  0
    1.3415   -0.9810   -2.2533 H   0  0  0  0  0  0  0  0  0  0  0  0
    3.7589   -1.1224   -1.8704 H   0  0  0  0  0  0  0  0  0  0  0  0
    0.8702    1.2195    1.4242 H   0  0  0  0  0  0  0  0  0  0  0  0
    6.6163    1.3573    3.2155 H   0  0  0  0  0  0  0  0  0  0  0  0
    8.6282    0.4141    2.1095 H   0  0  0  0  0  0  0  0  0  0  0  0
    8.4188   -0.7880   -0.0422 H   0  0  0  0  0  0  0  0  0  0  0  0
    6.2083   -1.0603   -1.1085 H   0  0  0  0  0  0  0  0  0  0  0  0
   -1.0959   -0.6556    1.2184 H   0  0  0  0  0  0  0  0  0  0  0  0
  1  2  2  0
  2  3  1  0
  3  4  2  0
  4  5  1  0
  5  6  2  0
  5  7  1  0
  7  8  1  0
  8  9  2  0
  9 10  1  0
 10 11  2  0
 11 12  1  0
 12 13  2  0
 13 14  1  0
 14 15  2  0
 15 16  1  0
 16 17  2  0
 16 18  1  0
 18 19  1  0
 19 20  2  0
 20 21  1  0
 21 22  2  0
 22 23  1  0
 23 24  2  0
 11 25  1  0
 25 26  2  0
 26 27  1  0
  6  1  1  0
 26  8  1  0
 27  4  1  0
 17 12  1  0
 24 19  1  0
 24 15  1  0
  1 28  1  0
  2 29  1  0
  3 30  1  0
  6 31  1  0
  9 32  1  0
 10 33  1  0
 13 34  1  0
 14 35  1  0
 17 36  1  0
 20 37  1  0
 21 38  1  0
 22 39  1  0
 23 40  1  0
 25 41  1  0
M  END
