
     RDKit          3D

 36 40  0  0  0  0  0  0  0  0999 V2000
   -6.6040    0.1839   -0.1683 C   0  0  0  0  0  0  0  0  0  0  0  0
   -6.1376    1.4318   -0.5878 C   0  0  0  0  0  0  0  0  0  0  0  0
   -4.7657    1.6651   -0.6990 C   0  0  0  0  0  0  0  0  0  0  0  0
   -3.8643    0.6475   -0.3897 C   0  0  0  0  0  0  0  0  0  0  0  0
   -4.3299   -0.5983    0.0289 C   0  0  0  0  0  0  0  0  0  0  0  0
   -5.6994   -0.8336    0.1408 C   0  0  0  0  0  0  0  0  0  0  0  0
   -3.4803   -1.6291    0.3432 O   0  0  0  0  0  0  0  0  0  0  0  0
   -2.1433   -1.3512    0.2160 C   0  0  0  0  0  0  0  0  0  0  0  0
   -1.2410   -2.3656    0.5204 C   0  0  0  0  0  0  0  0  0  0  0  0
    0.1331   -2.1301    0.4064 C   0  0  0  0  0  0  0  0  0  0  0  0
    0.6253   -0.8797   -0.0123 C   0  0  0  0  0  0  0  0  0  0  0  0
    2.0693   -0.6347   -0.1284 C   0  0  0  0  0  0  0  0  0  0  0  0
    2.9123   -1.4873   -0.8321 C   0  0  0  0  0  0  0  0  0  0  0  0
    4.2505   -1.3210   -0.9721 N   0  0  0  0  0  0  0  0  0  0  0  0
    4.8312   -0.2642   -0.4044 C   0  0  0  0  0  0  0  0  0  0  0  0
    6.1490   -0.1116   -0.5495 N   0  0  0  0  0  0  0  0  0  0  0  0
    6.7517    0.9542    0.0212 C   0  0  0  0  0  0  0  0  0  0  0  0
    6.0868    1.9131    0.7573 C   0  0  0  0  0  0  0  0  0  0  0  0
    4.7178    1.7648    0.9148 C   0  0  0  0  0  0  0  0  0  0  0  0
    4.0710    0.6661    0.3302 C   0  0  0  0  0  0  0  0  0  0  0  0
    2.6858    0.4695    0.4614 C   0  0  0  0  0  0  0  0  0  0  0  0
   -0.3061    0.1294   -0.3141 C   0  0  0  0  0  0  0  0  0  0  0  0
   -1.6775   -0.1076   -0.2003 C   0  0  0  0  0  0  0  0  0  0  0  0
   -2.5260    0.9246   -0.5141 O   0  0  0  0  0  0  0  0  0  0  0  0
   -7.6728    0.0040   -0.0826 H   0  0  0  0  0  0  0  0  0  0  0  0
   -6.8438    2.2227   -0.8286 H   0  0  0  0  0  0  0  0  0  0  0  0
   -4.4019    2.6350   -1.0258 H   0  0  0  0  0  0  0  0  0  0  0  0
   -6.0608   -1.8047    0.4667 H   0  0  0  0  0  0  0  0  0  0  0  0
   -1.6024   -3.3364    0.8486 H   0  0  0  0  0  0  0  0  0  0  0  0
    0.8207   -2.9347    0.6631 H   0  0  0  0  0  0  0  0  0  0  0  0
    2.5243   -2.3684   -1.3390 H   0  0  0  0  0  0  0  0  0  0  0  0
    7.8249    1.0135   -0.1387 H   0  0  0  0  0  0  0  0  0  0  0  0
    6.6197    2.7496    1.1947 H   0  0  0  0  0  0  0  0  0  0  0  0
    4.1606    2.5002    1.4890 H   0  0  0  0  0  0  0  0  0  0  0  0
    2.0928    1.1763    1.0380 H   0  0  0  0  0  0  0  0  0  0  0  0
    0.0298    1.1067   -0.6540 H   0  0  0  0  0  0  0  0  0  0  0  0
  1  2  2  0
  2  3  1  0
  3  4  2  0
  4  5  1  0
  5  6  2  0
  5  7  1  0
  7  8  1  0
  8  9  2  0
  9 10  1  0
 10 11  2  0
 11 12  1  0
 12 13  2  0
 13 14  1  0
 14 15  2  0
 15 16  1  0
 16 17  2  0
 17 18  1  0
 18 19  2  0
 19 20  1  0
 20 21  2  0
 11 22  1  0
 22 23  2  0
 23 24  1  0
  6  1  1  0
 23  8  1  0
 24  4  1  0
 21 12  1  0
 20 15  1  0
  1 25  1  0
  2 26  1  0
  3 27  1  0
  6 28  1  0
  9 29  1  0
 10 30  1  0
 13 31  1  0
 17 32  1  0
 18 33  1  0
 19 34  1  0
 21 35  1  0
 22 36  1  0
M  END
