
     RDKit          3D

 28 31  0  0  0  0  0  0  0  0999 V2000
    4.9763    0.2747   -0.0828 C   0  0  0  0  0  0  0  0  0  0  0  0
    4.7346   -1.0918    0.0751 C   0  0  0  0  0  0  0  0  0  0  0  0
    3.4241   -1.5660    0.1576 C   0  0  0  0  0  0  0  0  0  0  0  0
    2.3589   -0.6698    0.0817 C   0  0  0  0  0  0  0  0  0  0  0  0
    2.6001    0.6944   -0.0761 C   0  0  0  0  0  0  0  0  0  0  0  0
    3.9079    1.1702   -0.1587 C   0  0  0  0  0  0  0  0  0  0  0  0
    1.5836    1.6127   -0.1560 O   0  0  0  0  0  0  0  0  0  0  0  0
    0.3153    1.0980   -0.0704 C   0  0  0  0  0  0  0  0  0  0  0  0
   -0.7500    1.9900   -0.1489 C   0  0  0  0  0  0  0  0  0  0  0  0
   -2.0627    1.5138   -0.0669 C   0  0  0  0  0  0  0  0  0  0  0  0
   -2.3205    0.1429    0.0970 C   0  0  0  0  0  0  0  0  0  0  0  0
   -3.6891   -0.3341    0.1773 C   0  0  0  0  0  0  0  0  0  0  0  0
   -4.8949    0.1979   -0.3345 C   0  0  0  0  0  0  0  0  0  0  0  0
   -5.9565   -0.5500   -0.0233 N   0  0  0  0  0  0  0  0  0  0  0  0
   -5.4510   -1.6052    0.7177 O   0  0  0  0  0  0  0  0  0  0  0  0
   -4.1059   -1.4688    0.8339 C   0  0  0  0  0  0  0  0  0  0  0  0
   -1.2358   -0.7436    0.1722 C   0  0  0  0  0  0  0  0  0  0  0  0
    0.0731   -0.2638    0.0889 C   0  0  0  0  0  0  0  0  0  0  0  0
    1.0893   -1.1833    0.1678 O   0  0  0  0  0  0  0  0  0  0  0  0
    5.9976    0.6419   -0.1469 H   0  0  0  0  0  0  0  0  0  0  0  0
    5.5681   -1.7876    0.1338 H   0  0  0  0  0  0  0  0  0  0  0  0
    3.2353   -2.6286    0.2802 H   0  0  0  0  0  0  0  0  0  0  0  0
    4.0947    2.2332   -0.2816 H   0  0  0  0  0  0  0  0  0  0  0  0
   -0.5620    3.0533   -0.2711 H   0  0  0  0  0  0  0  0  0  0  0  0
   -2.8766    2.2337   -0.1200 H   0  0  0  0  0  0  0  0  0  0  0  0
   -5.0491    1.0910   -0.9234 H   0  0  0  0  0  0  0  0  0  0  0  0
   -3.6156   -2.2411    1.4078 H   0  0  0  0  0  0  0  0  0  0  0  0
   -1.3892   -1.8139    0.2819 H   0  0  0  0  0  0  0  0  0  0  0  0
  1  2  2  0
  2  3  1  0
  3  4  2  0
  4  5  1  0
  5  6  2  0
  5  7  1  0
  7  8  1  0
  8  9  2  0
  9 10  1  0
 10 11  2  0
 11 12  1  0
 12 13  1  0
 13 14  2  0
 14 15  1  0
 15 16  1  0
 11 17  1  0
 17 18  2  0
 18 19  1  0
  6  1  1  0
 18  8  1  0
 19  4  1  0
 16 12  2  0
  1 20  1  0
  2 21  1  0
  3 22  1  0
  6 23  1  0
  9 24  1  0
 10 25  1  0
 13 26  1  0
 16 27  1  0
 17 28  1  0
M  END
