
     RDKit          3D

 27 30  0  0  0  0  0  0  0  0999 V2000
   -4.8033    0.7406    0.7566 C   0  0  0  0  0  0  0  0  0  0  0  0
   -4.7649   -0.0435   -0.3985 C   0  0  0  0  0  0  0  0  0  0  0  0
   -3.5398   -0.4704   -0.9142 C   0  0  0  0  0  0  0  0  0  0  0  0
   -2.3562   -0.1107   -0.2715 C   0  0  0  0  0  0  0  0  0  0  0  0
   -2.3944    0.6720    0.8816 C   0  0  0  0  0  0  0  0  0  0  0  0
   -3.6165    1.0995    1.3986 C   0  0  0  0  0  0  0  0  0  0  0  0
   -1.2558    1.0501    1.5475 O   0  0  0  0  0  0  0  0  0  0  0  0
   -0.0779    0.6062    1.0022 C   0  0  0  0  0  0  0  0  0  0  0  0
    1.1047    0.9648    1.6433 C   0  0  0  0  0  0  0  0  0  0  0  0
    2.3309    0.5363    1.1254 C   0  0  0  0  0  0  0  0  0  0  0  0
    2.3844   -0.2530   -0.0361 C   0  0  0  0  0  0  0  0  0  0  0  0
    3.6718   -0.6928   -0.5650 C   0  0  0  0  0  0  0  0  0  0  0  0
    4.8684   -0.3607    0.0383 N   0  0  0  0  0  0  0  0  0  0  0  0
    5.7434   -0.9434   -0.7405 C   0  0  0  0  0  0  0  0  0  0  0  0
    5.1933   -1.6130   -1.7818 O   0  0  0  0  0  0  0  0  0  0  0  0
    3.8139   -1.4485   -1.6684 N   0  0  0  0  0  0  0  0  0  0  0  0
    1.1833   -0.6058   -0.6704 C   0  0  0  0  0  0  0  0  0  0  0  0
   -0.0386   -0.1760   -0.1501 C   0  0  0  0  0  0  0  0  0  0  0  0
   -1.1776   -0.5544   -0.8163 O   0  0  0  0  0  0  0  0  0  0  0  0
   -5.7583    1.0721    1.1568 H   0  0  0  0  0  0  0  0  0  0  0  0
   -5.6900   -0.3221   -0.8972 H   0  0  0  0  0  0  0  0  0  0  0  0
   -3.5083   -1.0803   -1.8126 H   0  0  0  0  0  0  0  0  0  0  0  0
   -3.6449    1.7092    2.2970 H   0  0  0  0  0  0  0  0  0  0  0  0
    1.0758    1.5747    2.5420 H   0  0  0  0  0  0  0  0  0  0  0  0
    3.2484    0.8239    1.6366 H   0  0  0  0  0  0  0  0  0  0  0  0
    6.8197   -0.9592   -0.6627 H   0  0  0  0  0  0  0  0  0  0  0  0
    1.1884   -1.2156   -1.5711 H   0  0  0  0  0  0  0  0  0  0  0  0
  1  2  2  0
  2  3  1  0
  3  4  2  0
  4  5  1  0
  5  6  2  0
  5  7  1  0
  7  8  1  0
  8  9  2  0
  9 10  1  0
 10 11  2  0
 11 12  1  0
 12 13  1  0
 13 14  2  0
 14 15  1  0
 15 16  1  0
 11 17  1  0
 17 18  2  0
 18 19  1  0
  6  1  1  0
 18  8  1  0
 19  4  1  0
 16 12  2  0
  1 20  1  0
  2 21  1  0
  3 22  1  0
  6 23  1  0
  9 24  1  0
 10 25  1  0
 14 26  1  0
 17 27  1  0
M  END
