
     RDKit          3D

 39 44  0  0  0  0  0  0  0  0999 V2000
   -4.0867    1.2922   -2.5462 C   0  0  0  0  0  0  0  0  0  0  0  0
   -2.7732    1.6301   -2.2170 C   0  0  0  0  0  0  0  0  0  0  0  0
   -2.0747    0.9291   -1.2226 C   0  0  0  0  0  0  0  0  0  0  0  0
   -2.7132   -0.1358   -0.5538 C   0  0  0  0  0  0  0  0  0  0  0  0
   -4.0283   -0.4242   -0.9042 C   0  0  0  0  0  0  0  0  0  0  0  0
   -4.7477    0.2514   -1.8886 C   0  0  0  0  0  0  0  0  0  0  0  0
   -4.5122   -1.4447   -0.1495 O   0  0  0  0  0  0  0  0  0  0  0  0
   -3.5179   -1.8217    0.6979 C   0  0  0  0  0  0  0  0  0  0  0  0
   -3.6396   -2.8268    1.6560 C   0  0  0  0  0  0  0  0  0  0  0  0
   -2.5203   -3.0783    2.4485 C   0  0  0  0  0  0  0  0  0  0  0  0
   -1.3372   -2.3627    2.2583 C   0  0  0  0  0  0  0  0  0  0  0  0
   -1.2219   -1.3638    1.2652 C   0  0  0  0  0  0  0  0  0  0  0  0
    0.0439   -0.6667    1.0468 C   0  0  0  0  0  0  0  0  0  0  0  0
    0.7671   -0.8318   -0.1347 C   0  0  0  0  0  0  0  0  0  0  0  0
    1.9663   -0.1256   -0.2169 C   0  0  0  0  0  0  0  0  0  0  0  0
    2.8980   -0.0600   -1.2253 N   0  0  0  0  0  0  0  0  0  0  0  0
    3.9352    0.7716   -0.8755 C   0  0  0  0  0  0  0  0  0  0  0  0
    5.0827    1.1337   -1.5780 C   0  0  0  0  0  0  0  0  0  0  0  0
    5.9277    2.0059   -0.9088 C   0  0  0  0  0  0  0  0  0  0  0  0
    5.7085    2.4999    0.3293 N   0  0  0  0  0  0  0  0  0  0  0  0
    4.5846    2.1320    0.9931 C   0  0  0  0  0  0  0  0  0  0  0  0
    3.6643    1.2547    0.4051 C   0  0  0  0  0  0  0  0  0  0  0  0
    2.4202    0.6854    0.8213 C   0  0  0  0  0  0  0  0  0  0  0  0
    1.6393    0.7793    1.9785 C   0  0  0  0  0  0  0  0  0  0  0  0
    0.4694    0.1005    2.0802 N   0  0  0  0  0  0  0  0  0  0  0  0
   -2.3648   -1.0701    0.4786 C   0  0  0  0  0  0  0  0  0  0  0  0
   -4.6091    1.8533   -3.3182 H   0  0  0  0  0  0  0  0  0  0  0  0
   -2.2848    2.4550   -2.7317 H   0  0  0  0  0  0  0  0  0  0  0  0
   -1.0619    1.2259   -0.9679 H   0  0  0  0  0  0  0  0  0  0  0  0
   -5.7712   -0.0172   -2.1206 H   0  0  0  0  0  0  0  0  0  0  0  0
   -4.5672   -3.3721    1.7826 H   0  0  0  0  0  0  0  0  0  0  0  0
   -2.5690   -3.8419    3.2216 H   0  0  0  0  0  0  0  0  0  0  0  0
   -0.4769   -2.5825    2.8902 H   0  0  0  0  0  0  0  0  0  0  0  0
    0.4139   -1.4685   -0.9371 H   0  0  0  0  0  0  0  0  0  0  0  0
    2.8295   -0.5543   -2.1037 H   0  0  0  0  0  0  0  0  0  0  0  0
    5.3072    0.7672   -2.5710 H   0  0  0  0  0  0  0  0  0  0  0  0
    6.8488    2.3456   -1.3762 H   0  0  0  0  0  0  0  0  0  0  0  0
    4.4530    2.5538    1.9830 H   0  0  0  0  0  0  0  0  0  0  0  0
    1.9180    1.3824    2.8353 H   0  0  0  0  0  0  0  0  0  0  0  0
  1  2  2  0
  2  3  1  0
  3  4  2  0
  4  5  1  0
  5  6  2  0
  5  7  1  0
  7  8  1  0
  8  9  2  0
  9 10  1  0
 10 11  2  0
 11 12  1  0
 12 13  1  0
 13 14  2  0
 14 15  1  0
 15 16  1  0
 16 17  1  0
 17 18  2  0
 18 19  1  0
 19 20  2  0
 20 21  1  0
 21 22  2  0
 22 23  1  0
 23 24  1  0
 24 25  2  0
 12 26  2  0
  6  1  1  0
 26  8  1  0
 26  4  1  0
 25 13  1  0
 23 15  2  0
 22 17  1  0
  1 27  1  0
  2 28  1  0
  3 29  1  0
  6 30  1  0
  9 31  1  0
 10 32  1  0
 11 33  1  0
 14 34  1  0
 16 35  1  0
 18 36  1  0
 19 37  1  0
 21 38  1  0
 24 39  1  0
M  END
