
     RDKit          3D

 40 45  0  0  0  0  0  0  0  0999 V2000
    3.8233    3.1621    1.1076 C   0  0  0  0  0  0  0  0  0  0  0  0
    2.4590    2.9864    0.8702 C   0  0  0  0  0  0  0  0  0  0  0  0
    1.9475    1.7379    0.4867 C   0  0  0  0  0  0  0  0  0  0  0  0
    2.8318    0.6495    0.3423 C   0  0  0  0  0  0  0  0  0  0  0  0
    4.1828    0.8716    0.5883 C   0  0  0  0  0  0  0  0  0  0  0  0
    4.7209    2.0994    0.9700 C   0  0  0  0  0  0  0  0  0  0  0  0
    4.8974   -0.2699    0.4042 O   0  0  0  0  0  0  0  0  0  0  0  0
    4.0152   -1.2384    0.0384 C   0  0  0  0  0  0  0  0  0  0  0  0
    4.3621   -2.5586   -0.2435 C   0  0  0  0  0  0  0  0  0  0  0  0
    3.3236   -3.4182   -0.6046 C   0  0  0  0  0  0  0  0  0  0  0  0
    2.0065   -2.9603   -0.6740 C   0  0  0  0  0  0  0  0  0  0  0  0
    1.6753   -1.6198   -0.3837 C   0  0  0  0  0  0  0  0  0  0  0  0
    0.2945   -1.1482   -0.4563 C   0  0  0  0  0  0  0  0  0  0  0  0
   -0.2414   -0.7053   -1.6654 C   0  0  0  0  0  0  0  0  0  0  0  0
   -1.5614   -0.2462   -1.7426 C   0  0  0  0  0  0  0  0  0  0  0  0
   -2.3893   -0.2215   -0.5914 C   0  0  0  0  0  0  0  0  0  0  0  0
   -1.8415   -0.6718    0.6091 C   0  0  0  0  0  0  0  0  0  0  0  0
   -0.5127   -1.1374    0.6916 C   0  0  0  0  0  0  0  0  0  0  0  0
   -2.9736   -0.5731    1.8935 S   0  0  0  0  0  0  0  0  0  0  0  0
   -4.2055    0.0660    0.8860 C   0  0  0  0  0  0  0  0  0  0  0  0
   -5.5128    0.4222    1.2748 C   0  0  0  0  0  0  0  0  0  0  0  0
   -6.3914    0.9310    0.3168 C   0  0  0  0  0  0  0  0  0  0  0  0
   -5.9837    1.0839   -0.9995 C   0  0  0  0  0  0  0  0  0  0  0  0
   -4.6859    0.7289   -1.3797 C   0  0  0  0  0  0  0  0  0  0  0  0
   -3.7666    0.2084   -0.4308 C   0  0  0  0  0  0  0  0  0  0  0  0
    2.7181   -0.7334   -0.0168 C   0  0  0  0  0  0  0  0  0  0  0  0
    4.1954    4.1404    1.4044 H   0  0  0  0  0  0  0  0  0  0  0  0
    1.7796    3.8287    0.9840 H   0  0  0  0  0  0  0  0  0  0  0  0
    0.8829    1.6227    0.3063 H   0  0  0  0  0  0  0  0  0  0  0  0
    5.7826    2.2166    1.1496 H   0  0  0  0  0  0  0  0  0  0  0  0
    5.3907   -2.8937   -0.1830 H   0  0  0  0  0  0  0  0  0  0  0  0
    3.5443   -4.4586   -0.8335 H   0  0  0  0  0  0  0  0  0  0  0  0
    1.2189   -3.6575   -0.9568 H   0  0  0  0  0  0  0  0  0  0  0  0
    0.3702   -0.7070   -2.5662 H   0  0  0  0  0  0  0  0  0  0  0  0
   -1.9496    0.0957   -2.6988 H   0  0  0  0  0  0  0  0  0  0  0  0
   -0.1153   -1.4793    1.6449 H   0  0  0  0  0  0  0  0  0  0  0  0
   -5.8343    0.3030    2.3059 H   0  0  0  0  0  0  0  0  0  0  0  0
   -7.4019    1.2083    0.6078 H   0  0  0  0  0  0  0  0  0  0  0  0
   -6.6736    1.4806   -1.7404 H   0  0  0  0  0  0  0  0  0  0  0  0
   -4.3824    0.8550   -2.4159 H   0  0  0  0  0  0  0  0  0  0  0  0
  1  2  2  0
  2  3  1  0
  3  4  2  0
  4  5  1  0
  5  6  2  0
  5  7  1  0
  7  8  1  0
  8  9  2  0
  9 10  1  0
 10 11  2  0
 11 12  1  0
 12 13  1  0
 13 14  2  0
 14 15  1  0
 15 16  2  0
 16 17  1  0
 17 18  2  0
 17 19  1  0
 19 20  1  0
 20 21  2  0
 21 22  1  0
 22 23  2  0
 23 24  1  0
 24 25  2  0
 12 26  2  0
  6  1  1  0
 26  8  1  0
 26  4  1  0
 18 13  1  0
 25 20  1  0
 25 16  1  0
  1 27  1  0
  2 28  1  0
  3 29  1  0
  6 30  1  0
  9 31  1  0
 10 32  1  0
 11 33  1  0
 14 34  1  0
 15 35  1  0
 18 36  1  0
 21 37  1  0
 22 38  1  0
 23 39  1  0
 24 40  1  0
M  END
