
     RDKit          3D

 33 37  0  0  0  0  0  0  0  0999 V2000
   -3.9062    2.4432    0.0636 C   0  0  0  0  0  0  0  0  0  0  0  0
   -2.5414    2.7270    0.1161 C   0  0  0  0  0  0  0  0  0  0  0  0
   -1.5863    1.7001    0.0650 C   0  0  0  0  0  0  0  0  0  0  0  0
   -2.0178    0.3618   -0.0502 C   0  0  0  0  0  0  0  0  0  0  0  0
   -3.3896    0.1288   -0.0807 C   0  0  0  0  0  0  0  0  0  0  0  0
   -4.3619    1.1264   -0.0327 C   0  0  0  0  0  0  0  0  0  0  0  0
   -3.6478   -1.2019   -0.1534 O   0  0  0  0  0  0  0  0  0  0  0  0
   -2.4498   -1.8426   -0.1661 C   0  0  0  0  0  0  0  0  0  0  0  0
   -2.3031   -3.2280   -0.2025 C   0  0  0  0  0  0  0  0  0  0  0  0
   -1.0003   -3.7220   -0.1983 C   0  0  0  0  0  0  0  0  0  0  0  0
    0.0905   -2.8520   -0.1846 C   0  0  0  0  0  0  0  0  0  0  0  0
   -0.0732   -1.4470   -0.1775 C   0  0  0  0  0  0  0  0  0  0  0  0
    1.0875   -0.5641   -0.2202 C   0  0  0  0  0  0  0  0  0  0  0  0
    1.3060    0.3466   -1.2426 C   0  0  0  0  0  0  0  0  0  0  0  0
    2.3895    1.1532   -1.2895 N   0  0  0  0  0  0  0  0  0  0  0  0
    3.2792    1.0233   -0.2985 C   0  0  0  0  0  0  0  0  0  0  0  0
    4.3637    1.8100   -0.3181 N   0  0  0  0  0  0  0  0  0  0  0  0
    5.2478    1.6566    0.6882 C   0  0  0  0  0  0  0  0  0  0  0  0
    5.0564    0.7375    1.6956 C   0  0  0  0  0  0  0  0  0  0  0  0
    3.9727   -0.0637    1.7372 N   0  0  0  0  0  0  0  0  0  0  0  0
    3.0778    0.0710    0.7489 C   0  0  0  0  0  0  0  0  0  0  0  0
    1.9922   -0.7130    0.7743 N   0  0  0  0  0  0  0  0  0  0  0  0
   -1.3950   -0.9308   -0.1374 C   0  0  0  0  0  0  0  0  0  0  0  0
   -4.6273    3.2568    0.1075 H   0  0  0  0  0  0  0  0  0  0  0  0
   -2.2103    3.7602    0.2042 H   0  0  0  0  0  0  0  0  0  0  0  0
   -0.5334    1.9559    0.1303 H   0  0  0  0  0  0  0  0  0  0  0  0
   -5.4175    0.8844   -0.0622 H   0  0  0  0  0  0  0  0  0  0  0  0
   -3.1659   -3.8836   -0.2170 H   0  0  0  0  0  0  0  0  0  0  0  0
   -0.8324   -4.7969   -0.2077 H   0  0  0  0  0  0  0  0  0  0  0  0
    1.0970   -3.2716   -0.1837 H   0  0  0  0  0  0  0  0  0  0  0  0
    0.6083    0.4581   -2.0673 H   0  0  0  0  0  0  0  0  0  0  0  0
    6.1207    2.2992    0.6590 H   0  0  0  0  0  0  0  0  0  0  0  0
    5.7703    0.6170    2.5028 H   0  0  0  0  0  0  0  0  0  0  0  0
  1  2  2  0
  2  3  1  0
  3  4  2  0
  4  5  1  0
  5  6  2  0
  5  7  1  0
  7  8  1  0
  8  9  2  0
  9 10  1  0
 10 11  2  0
 11 12  1  0
 12 13  1  0
 13 14  2  0
 14 15  1  0
 15 16  2  0
 16 17  1  0
 17 18  2  0
 18 19  1  0
 19 20  2  0
 20 21  1  0
 21 22  2  0
 12 23  2  0
  6  1  1  0
 23  8  1  0
 23  4  1  0
 22 13  1  0
 21 16  1  0
  1 24  1  0
  2 25  1  0
  3 26  1  0
  6 27  1  0
  9 28  1  0
 10 29  1  0
 11 30  1  0
 14 31  1  0
 18 32  1  0
 19 33  1  0
M  END
