
     RDKit          3D

 27 30  0  0  0  0  0  0  0  0999 V2000
    3.7984   -0.6055    0.7131 C   0  0  0  0  0  0  0  0  0  0  0  0
    2.8381   -1.6173    0.6678 C   0  0  0  0  0  0  0  0  0  0  0  0
    1.4907   -1.3227    0.4123 C   0  0  0  0  0  0  0  0  0  0  0  0
    1.1068    0.0170    0.2004 C   0  0  0  0  0  0  0  0  0  0  0  0
    2.0990    0.9908    0.2540 C   0  0  0  0  0  0  0  0  0  0  0  0
    3.4453    0.7306    0.5053 C   0  0  0  0  0  0  0  0  0  0  0  0
    1.5741    2.2230    0.0246 O   0  0  0  0  0  0  0  0  0  0  0  0
    0.2405    2.0562   -0.1806 C   0  0  0  0  0  0  0  0  0  0  0  0
   -0.6503    3.0932   -0.4584 C   0  0  0  0  0  0  0  0  0  0  0  0
   -1.9883    2.7437   -0.6494 C   0  0  0  0  0  0  0  0  0  0  0  0
   -2.3980    1.4124   -0.5641 C   0  0  0  0  0  0  0  0  0  0  0  0
   -1.4756    0.3852   -0.2819 C   0  0  0  0  0  0  0  0  0  0  0  0
   -1.9117   -0.9914   -0.1952 C   0  0  0  0  0  0  0  0  0  0  0  0
   -2.4586   -1.6737   -1.2653 C   0  0  0  0  0  0  0  0  0  0  0  0
   -2.8840   -3.2650   -0.7840 S   0  0  0  0  0  0  0  0  0  0  0  0
   -2.3193   -2.9144    0.7970 C   0  0  0  0  0  0  0  0  0  0  0  0
   -1.8313   -1.7082    0.9852 N   0  0  0  0  0  0  0  0  0  0  0  0
   -0.1149    0.7119   -0.0813 C   0  0  0  0  0  0  0  0  0  0  0  0
    4.8370   -0.8587    0.9145 H   0  0  0  0  0  0  0  0  0  0  0  0
    3.1354   -2.6503    0.8358 H   0  0  0  0  0  0  0  0  0  0  0  0
    0.7573   -2.1224    0.3867 H   0  0  0  0  0  0  0  0  0  0  0  0
    4.1758    1.5298    0.5366 H   0  0  0  0  0  0  0  0  0  0  0  0
   -0.3112    4.1207   -0.5196 H   0  0  0  0  0  0  0  0  0  0  0  0
   -2.7195    3.5205   -0.8623 H   0  0  0  0  0  0  0  0  0  0  0  0
   -3.4507    1.1737   -0.7046 H   0  0  0  0  0  0  0  0  0  0  0  0
   -2.6224   -1.3294   -2.2765 H   0  0  0  0  0  0  0  0  0  0  0  0
   -2.3624   -3.6497    1.5898 H   0  0  0  0  0  0  0  0  0  0  0  0
  1  2  2  0
  2  3  1  0
  3  4  2  0
  4  5  1  0
  5  6  2  0
  5  7  1  0
  7  8  1  0
  8  9  2  0
  9 10  1  0
 10 11  2  0
 11 12  1  0
 12 13  1  0
 13 14  2  0
 14 15  1  0
 15 16  1  0
 16 17  2  0
 12 18  2  0
  6  1  1  0
 18  8  1  0
 18  4  1  0
 17 13  1  0
  1 19  1  0
  2 20  1  0
  3 21  1  0
  6 22  1  0
  9 23  1  0
 10 24  1  0
 11 25  1  0
 14 26  1  0
 16 27  1  0
M  END
