
     RDKit          3D

 70 79  0  0  0  0  0  0  0  0999 V2000
    7.2667   -3.5440    1.0987 C   0  0  0  0  0  0  0  0  0  0  0  0
    5.8765   -3.6002    1.1400 C   0  0  0  0  0  0  0  0  0  0  0  0
    5.1146   -2.5322    0.6539 C   0  0  0  0  0  0  0  0  0  0  0  0
    5.7296   -1.3887    0.1141 C   0  0  0  0  0  0  0  0  0  0  0  0
    7.1334   -1.3504    0.0902 C   0  0  0  0  0  0  0  0  0  0  0  0
    7.8963   -2.4178    0.5749 C   0  0  0  0  0  0  0  0  0  0  0  0
    7.8481   -0.2801   -0.3972 O   0  0  0  0  0  0  0  0  0  0  0  0
    7.1390    0.7992   -0.8724 C   0  0  0  0  0  0  0  0  0  0  0  0
    7.9077    1.8658   -1.3499 C   0  0  0  0  0  0  0  0  0  0  0  0
    7.2845    3.0016   -1.8601 C   0  0  0  0  0  0  0  0  0  0  0  0
    5.8945    3.0684   -1.8944 C   0  0  0  0  0  0  0  0  0  0  0  0
    5.1268    2.0006   -1.4169 C   0  0  0  0  0  0  0  0  0  0  0  0
    5.7353    0.8466   -0.8927 C   0  0  0  0  0  0  0  0  0  0  0  0
    4.9887   -0.2716   -0.3946 N   0  0  0  0  0  0  0  0  0  0  0  0
    3.5633   -0.2764   -0.4129 C   0  0  0  0  0  0  0  0  0  0  0  0
    2.8697   -0.9126   -1.4348 C   0  0  0  0  0  0  0  0  0  0  0  0
    1.4730   -0.9093   -1.4393 C   0  0  0  0  0  0  0  0  0  0  0  0
    0.7073   -0.2721   -0.4266 C   0  0  0  0  0  0  0  0  0  0  0  0
   -0.7229   -0.2555   -0.4103 C   0  0  0  0  0  0  0  0  0  0  0  0
   -1.5256   -0.8761   -1.4042 C   0  0  0  0  0  0  0  0  0  0  0  0
   -2.9215   -0.8464   -1.3683 C   0  0  0  0  0  0  0  0  0  0  0  0
   -3.5771   -0.1919   -0.3329 C   0  0  0  0  0  0  0  0  0  0  0  0
   -5.0013   -0.1526   -0.2840 N   0  0  0  0  0  0  0  0  0  0  0  0
   -5.7452    0.8030   -1.0515 C   0  0  0  0  0  0  0  0  0  0  0  0
   -5.1333    1.7832   -1.8527 C   0  0  0  0  0  0  0  0  0  0  0  0
   -5.8979    2.6967   -2.5865 C   0  0  0  0  0  0  0  0  0  0  0  0
   -7.2879    2.6498   -2.5306 C   0  0  0  0  0  0  0  0  0  0  0  0
   -7.9143    1.6920   -1.7374 C   0  0  0  0  0  0  0  0  0  0  0  0
   -7.1487    0.7800   -1.0034 C   0  0  0  0  0  0  0  0  0  0  0  0
   -7.8603   -0.1204   -0.2441 O   0  0  0  0  0  0  0  0  0  0  0  0
   -7.1479   -1.0294    0.5043 C   0  0  0  0  0  0  0  0  0  0  0  0
   -7.9133   -1.9195    1.2646 C   0  0  0  0  0  0  0  0  0  0  0  0
   -7.2867   -2.8835    2.0499 C   0  0  0  0  0  0  0  0  0  0  0  0
   -5.8968   -2.9576    2.0724 C   0  0  0  0  0  0  0  0  0  0  0  0
   -5.1324   -2.0671    1.3109 C   0  0  0  0  0  0  0  0  0  0  0  0
   -5.7443   -1.0832    0.5144 C   0  0  0  0  0  0  0  0  0  0  0  0
   -2.8095    0.4271    0.6586 C   0  0  0  0  0  0  0  0  0  0  0  0
   -1.3940    0.4111    0.6464 C   0  0  0  0  0  0  0  0  0  0  0  0
   -0.6766    1.0502    1.6717 C   0  0  0  0  0  0  0  0  0  0  0  0
   -1.3409    1.6823    2.6762 N   0  0  0  0  0  0  0  0  0  0  0  0
   -0.6169    2.2829    3.6394 C   0  0  0  0  0  0  0  0  0  0  0  0
    0.7527    2.2674    3.6235 C   0  0  0  0  0  0  0  0  0  0  0  0
    1.4402    1.6506    2.6440 N   0  0  0  0  0  0  0  0  0  0  0  0
    0.7387    1.0335    1.6557 C   0  0  0  0  0  0  0  0  0  0  0  0
    1.4174    0.3774    0.6150 C   0  0  0  0  0  0  0  0  0  0  0  0
    2.8327    0.3584    0.5964 C   0  0  0  0  0  0  0  0  0  0  0  0
    7.8588   -4.3729    1.4775 H   0  0  0  0  0  0  0  0  0  0  0  0
    5.3793   -4.4741    1.5540 H   0  0  0  0  0  0  0  0  0  0  0  0
    4.0324   -2.6092    0.7117 H   0  0  0  0  0  0  0  0  0  0  0  0
    8.9811   -2.3658    0.5447 H   0  0  0  0  0  0  0  0  0  0  0  0
    8.9922    1.8063   -1.3228 H   0  0  0  0  0  0  0  0  0  0  0  0
    7.8808    3.8311   -2.2306 H   0  0  0  0  0  0  0  0  0  0  0  0
    5.4018    3.9518   -2.2927 H   0  0  0  0  0  0  0  0  0  0  0  0
    4.0449    2.0897   -1.4628 H   0  0  0  0  0  0  0  0  0  0  0  0
    3.4148   -1.4114   -2.2326 H   0  0  0  0  0  0  0  0  0  0  0  0
    0.9947   -1.4246   -2.2676 H   0  0  0  0  0  0  0  0  0  0  0  0
   -1.0784   -1.4054   -2.2409 H   0  0  0  0  0  0  0  0  0  0  0  0
   -3.4960   -1.3377   -2.1499 H   0  0  0  0  0  0  0  0  0  0  0  0
   -4.0511    1.8573   -1.9150 H   0  0  0  0  0  0  0  0  0  0  0  0
   -5.4029    3.4463   -3.1990 H   0  0  0  0  0  0  0  0  0  0  0  0
   -7.8821    3.3597   -3.0999 H   0  0  0  0  0  0  0  0  0  0  0  0
   -8.9989    1.6535   -1.6857 H   0  0  0  0  0  0  0  0  0  0  0  0
   -8.9979   -1.8581    1.2408 H   0  0  0  0  0  0  0  0  0  0  0  0
   -7.8804   -3.5753    2.6413 H   0  0  0  0  0  0  0  0  0  0  0  0
   -5.4018   -3.7087    2.6830 H   0  0  0  0  0  0  0  0  0  0  0  0
   -4.0505   -2.1580    1.3534 H   0  0  0  0  0  0  0  0  0  0  0  0
   -3.3382    0.9394    1.4636 H   0  0  0  0  0  0  0  0  0  0  0  0
   -1.1771    2.7772    4.4238 H   0  0  0  0  0  0  0  0  0  0  0  0
    1.3421    2.7484    4.3946 H   0  0  0  0  0  0  0  0  0  0  0  0
    3.3910    0.8511    1.3935 H   0  0  0  0  0  0  0  0  0  0  0  0
  1  2  2  0
  2  3  1  0
  3  4  2  0
  4  5  1  0
  5  6  2  0
  5  7  1  0
  7  8  1  0
  8  9  2  0
  9 10  1  0
 10 11  2  0
 11 12  1  0
 12 13  2  0
 13 14  1  0
 14 15  1  0
 15 16  2  0
 16 17  1  0
 17 18  2  0
 18 19  1  0
 19 20  2  0
 20 21  1  0
 21 22  2  0
 22 23  1  0
 23 24  1  0
 24 25  2  0
 25 26  1  0
 26 27  2  0
 27 28  1  0
 28 29  2  0
 29 30  1  0
 30 31  1  0
 31 32  2  0
 32 33  1  0
 33 34  2  0
 34 35  1  0
 35 36  2  0
 22 37  1  0
 37 38  2  0
 38 39  1  0
 39 40  2  0
 40 41  1  0
 41 42  2  0
 42 43  1  0
 43 44  2  0
 44 45  1  0
 45 46  2  0
  6  1  1  0
 13  8  1  0
 46 15  1  0
 14  4  1  0
 45 18  1  0
 38 19  1  0
 44 39  1  0
 36 23  1  0
 29 24  1  0
 36 31  1  0
  1 47  1  0
  2 48  1  0
  3 49  1  0
  6 50  1  0
  9 51  1  0
 10 52  1  0
 11 53  1  0
 12 54  1  0
 16 55  1  0
 17 56  1  0
 20 57  1  0
 21 58  1  0
 25 59  1  0
 26 60  1  0
 27 61  1  0
 28 62  1  0
 32 63  1  0
 33 64  1  0
 34 65  1  0
 35 66  1  0
 37 67  1  0
 41 68  1  0
 42 69  1  0
 46 70  1  0
M  END
