
     RDKit          3D

 38 43  0  0  0  0  0  0  0  0999 V2000
   -7.3430   -0.3656   -0.7058 C   0  0  0  0  0  0  0  0  0  0  0  0
   -7.0178   -0.4973    0.6356 C   0  0  0  0  0  0  0  0  0  0  0  0
   -5.6805   -0.4608    1.0421 C   0  0  0  0  0  0  0  0  0  0  0  0
   -4.6367   -0.2892    0.0947 C   0  0  0  0  0  0  0  0  0  0  0  0
   -4.9949   -0.1594   -1.2476 C   0  0  0  0  0  0  0  0  0  0  0  0
   -6.3414   -0.1955   -1.6630 C   0  0  0  0  0  0  0  0  0  0  0  0
   -3.6167    0.0390   -2.2490 S   0  0  0  0  0  0  0  0  0  0  0  0
   -2.5261   -0.0432   -0.9272 C   0  0  0  0  0  0  0  0  0  0  0  0
   -1.1176    0.0505   -0.9878 C   0  0  0  0  0  0  0  0  0  0  0  0
   -0.3485   -0.0346    0.1841 C   0  0  0  0  0  0  0  0  0  0  0  0
    1.1212    0.0644    0.1108 C   0  0  0  0  0  0  0  0  0  0  0  0
    1.9625    0.2399   -0.9806 C   0  0  0  0  0  0  0  0  0  0  0  0
    3.3109    0.2723   -0.5321 C   0  0  0  0  0  0  0  0  0  0  0  0
    4.5560    0.4212   -1.1685 C   0  0  0  0  0  0  0  0  0  0  0  0
    5.7406    0.4095   -0.4194 C   0  0  0  0  0  0  0  0  0  0  0  0
    7.1281    0.5264   -0.6955 C   0  0  0  0  0  0  0  0  0  0  0  0
    7.7753    0.4292    0.5158 C   0  0  0  0  0  0  0  0  0  0  0  0
    6.8813    0.2597    1.5259 O   0  0  0  0  0  0  0  0  0  0  0  0
    5.6459    0.2479    0.9565 C   0  0  0  0  0  0  0  0  0  0  0  0
    4.4368    0.0984    1.6177 C   0  0  0  0  0  0  0  0  0  0  0  0
    3.2743    0.1137    0.8495 C   0  0  0  0  0  0  0  0  0  0  0  0
    1.9545   -0.0087    1.2104 N   0  0  0  0  0  0  0  0  0  0  0  0
   -1.0164   -0.2131    1.3972 C   0  0  0  0  0  0  0  0  0  0  0  0
   -2.4151   -0.3060    1.4551 C   0  0  0  0  0  0  0  0  0  0  0  0
   -3.1987   -0.2213    0.2788 C   0  0  0  0  0  0  0  0  0  0  0  0
   -8.3846   -0.3947   -1.0172 H   0  0  0  0  0  0  0  0  0  0  0  0
   -7.8034   -0.6296    1.3755 H   0  0  0  0  0  0  0  0  0  0  0  0
   -5.4429   -0.5656    2.0976 H   0  0  0  0  0  0  0  0  0  0  0  0
   -6.5983   -0.0924   -2.7137 H   0  0  0  0  0  0  0  0  0  0  0  0
   -0.6457    0.1892   -1.9559 H   0  0  0  0  0  0  0  0  0  0  0  0
    1.6490    0.3372   -2.0115 H   0  0  0  0  0  0  0  0  0  0  0  0
    4.5977    0.5459   -2.2469 H   0  0  0  0  0  0  0  0  0  0  0  0
    7.5976    0.6645   -1.6586 H   0  0  0  0  0  0  0  0  0  0  0  0
    8.8138    0.4595    0.8143 H   0  0  0  0  0  0  0  0  0  0  0  0
    4.4100   -0.0252    2.6947 H   0  0  0  0  0  0  0  0  0  0  0  0
    1.6492   -0.1354    2.1630 H   0  0  0  0  0  0  0  0  0  0  0  0
   -0.4775   -0.2862    2.3368 H   0  0  0  0  0  0  0  0  0  0  0  0
   -2.8987   -0.4449    2.4190 H   0  0  0  0  0  0  0  0  0  0  0  0
  1  2  2  0
  2  3  1  0
  3  4  2  0
  4  5  1  0
  5  6  2  0
  5  7  1  0
  7  8  1  0
  8  9  2  0
  9 10  1  0
 10 11  1  0
 11 12  2  0
 12 13  1  0
 13 14  2  0
 14 15  1  0
 15 16  1  0
 16 17  2  0
 17 18  1  0
 18 19  1  0
 19 20  1  0
 20 21  2  0
 21 22  1  0
 10 23  2  0
 23 24  1  0
 24 25  2  0
  6  1  1  0
 25  8  1  0
 25  4  1  0
 22 11  1  0
 21 13  1  0
 19 15  2  0
  1 26  1  0
  2 27  1  0
  3 28  1  0
  6 29  1  0
  9 30  1  0
 12 31  1  0
 14 32  1  0
 16 33  1  0
 17 34  1  0
 20 35  1  0
 22 36  1  0
 23 37  1  0
 24 38  1  0
M  END
