
     RDKit          3D

 37 42  0  0  0  0  0  0  0  0999 V2000
   -7.3091   -0.3060    0.3534 C   0  0  0  0  0  0  0  0  0  0  0  0
   -6.8667    0.9991    0.2001 C   0  0  0  0  0  0  0  0  0  0  0  0
   -5.4973    1.2761    0.1485 C   0  0  0  0  0  0  0  0  0  0  0  0
   -4.5396    0.2327    0.2514 C   0  0  0  0  0  0  0  0  0  0  0  0
   -5.0148   -1.0702    0.4049 C   0  0  0  0  0  0  0  0  0  0  0  0
   -6.3943   -1.3553    0.4576 C   0  0  0  0  0  0  0  0  0  0  0  0
   -3.7285   -2.1994    0.5125 S   0  0  0  0  0  0  0  0  0  0  0  0
   -2.5242   -0.9872    0.3583 C   0  0  0  0  0  0  0  0  0  0  0  0
   -1.1253   -1.1843    0.3595 C   0  0  0  0  0  0  0  0  0  0  0  0
   -0.2618   -0.0865    0.2232 C   0  0  0  0  0  0  0  0  0  0  0  0
    1.1877   -0.2839    0.2237 C   0  0  0  0  0  0  0  0  0  0  0  0
    2.0133   -1.3891    0.3356 C   0  0  0  0  0  0  0  0  0  0  0  0
    3.3506   -0.9198    0.2628 C   0  0  0  0  0  0  0  0  0  0  0  0
    4.6278   -1.4931    0.3081 C   0  0  0  0  0  0  0  0  0  0  0  0
    5.7325   -0.6554    0.1974 C   0  0  0  0  0  0  0  0  0  0  0  0
    7.0369   -1.0414    0.2213 O   0  0  0  0  0  0  0  0  0  0  0  0
    7.7832    0.0863    0.0834 C   0  0  0  0  0  0  0  0  0  0  0  0
    6.9744    1.1948   -0.0290 C   0  0  0  0  0  0  0  0  0  0  0  0
    5.6377    0.7242    0.0438 C   0  0  0  0  0  0  0  0  0  0  0  0
    4.3599    1.2960   -0.0013 C   0  0  0  0  0  0  0  0  0  0  0  0
    3.2559    0.4573    0.1095 C   0  0  0  0  0  0  0  0  0  0  0  0
    1.9534    0.8431    0.0856 O   0  0  0  0  0  0  0  0  0  0  0  0
   -0.8179    1.1865    0.0885 C   0  0  0  0  0  0  0  0  0  0  0  0
   -2.2059    1.3787    0.0877 C   0  0  0  0  0  0  0  0  0  0  0  0
   -3.0891    0.2795    0.2244 C   0  0  0  0  0  0  0  0  0  0  0  0
   -8.3753   -0.5165    0.3930 H   0  0  0  0  0  0  0  0  0  0  0  0
   -7.5849    1.8114    0.1196 H   0  0  0  0  0  0  0  0  0  0  0  0
   -5.1672    2.3049    0.0280 H   0  0  0  0  0  0  0  0  0  0  0  0
   -6.7431   -2.3773    0.5777 H   0  0  0  0  0  0  0  0  0  0  0  0
   -0.7347   -2.1922    0.4669 H   0  0  0  0  0  0  0  0  0  0  0  0
    1.6950   -2.4145    0.4555 H   0  0  0  0  0  0  0  0  0  0  0  0
    4.7624   -2.5631    0.4263 H   0  0  0  0  0  0  0  0  0  0  0  0
    8.8542   -0.0620    0.0840 H   0  0  0  0  0  0  0  0  0  0  0  0
    7.3078    2.2156   -0.1487 H   0  0  0  0  0  0  0  0  0  0  0  0
    4.2249    2.3659   -0.1195 H   0  0  0  0  0  0  0  0  0  0  0  0
   -0.1762    2.0594   -0.0192 H   0  0  0  0  0  0  0  0  0  0  0  0
   -2.6016    2.3856   -0.0195 H   0  0  0  0  0  0  0  0  0  0  0  0
  1  2  2  0
  2  3  1  0
  3  4  2  0
  4  5  1  0
  5  6  2  0
  5  7  1  0
  7  8  1  0
  8  9  2  0
  9 10  1  0
 10 11  1  0
 11 12  2  0
 12 13  1  0
 13 14  2  0
 14 15  1  0
 15 16  1  0
 16 17  1  0
 17 18  2  0
 18 19  1  0
 19 20  1  0
 20 21  2  0
 21 22  1  0
 10 23  2  0
 23 24  1  0
 24 25  2  0
  6  1  1  0
 25  8  1  0
 25  4  1  0
 22 11  1  0
 21 13  1  0
 19 15  2  0
  1 26  1  0
  2 27  1  0
  3 28  1  0
  6 29  1  0
  9 30  1  0
 12 31  1  0
 14 32  1  0
 17 33  1  0
 18 34  1  0
 20 35  1  0
 23 36  1  0
 24 37  1  0
M  END
