
     RDKit          3D

 39 44  0  0  0  0  0  0  0  0999 V2000
   -6.0835    1.4949    0.4411 C   0  0  0  0  0  0  0  0  0  0  0  0
   -5.7646    1.1950   -0.8745 C   0  0  0  0  0  0  0  0  0  0  0  0
   -4.5164    0.6490   -1.1888 C   0  0  0  0  0  0  0  0  0  0  0  0
   -3.5578    0.3929   -0.1729 C   0  0  0  0  0  0  0  0  0  0  0  0
   -3.9074    0.7048    1.1414 C   0  0  0  0  0  0  0  0  0  0  0  0
   -5.1643    1.2554    1.4640 C   0  0  0  0  0  0  0  0  0  0  0  0
   -2.6392    0.3328    2.2341 S   0  0  0  0  0  0  0  0  0  0  0  0
   -1.6083   -0.2444    0.9912 C   0  0  0  0  0  0  0  0  0  0  0  0
   -0.3012   -0.7504    1.1487 C   0  0  0  0  0  0  0  0  0  0  0  0
    0.4214   -1.1751    0.0226 C   0  0  0  0  0  0  0  0  0  0  0  0
    1.7776   -1.7056    0.1711 C   0  0  0  0  0  0  0  0  0  0  0  0
    1.9544   -3.0907    0.3654 C   0  0  0  0  0  0  0  0  0  0  0  0
    3.2174   -3.6392    0.5106 C   0  0  0  0  0  0  0  0  0  0  0  0
    4.3404   -2.8204    0.4661 C   0  0  0  0  0  0  0  0  0  0  0  0
    4.1777   -1.4327    0.2727 C   0  0  0  0  0  0  0  0  0  0  0  0
    5.4529   -0.2839    0.1932 S   0  0  0  0  0  0  0  0  0  0  0  0
    4.3810    1.0044   -0.0381 C   0  0  0  0  0  0  0  0  0  0  0  0
    4.8606    2.2596   -0.1764 N   0  0  0  0  0  0  0  0  0  0  0  0
    3.9146    3.1991   -0.3530 C   0  0  0  0  0  0  0  0  0  0  0  0
    2.5562    2.9602   -0.3992 C   0  0  0  0  0  0  0  0  0  0  0  0
    2.1070    1.6496   -0.2534 C   0  0  0  0  0  0  0  0  0  0  0  0
    3.0482    0.6077   -0.0620 C   0  0  0  0  0  0  0  0  0  0  0  0
    2.9166   -0.8372    0.1216 C   0  0  0  0  0  0  0  0  0  0  0  0
   -0.1797   -1.1058   -1.2347 C   0  0  0  0  0  0  0  0  0  0  0  0
   -1.4782   -0.6054   -1.3846 C   0  0  0  0  0  0  0  0  0  0  0  0
   -2.2183   -0.1598   -0.2598 C   0  0  0  0  0  0  0  0  0  0  0  0
   -7.0558    1.9190    0.6808 H   0  0  0  0  0  0  0  0  0  0  0  0
   -6.4860    1.3837   -1.6658 H   0  0  0  0  0  0  0  0  0  0  0  0
   -4.2830    0.4193   -2.2254 H   0  0  0  0  0  0  0  0  0  0  0  0
   -5.4165    1.4906    2.4944 H   0  0  0  0  0  0  0  0  0  0  0  0
    0.1454   -0.8029    2.1393 H   0  0  0  0  0  0  0  0  0  0  0  0
    1.0846   -3.7452    0.4035 H   0  0  0  0  0  0  0  0  0  0  0  0
    3.3331   -4.7098    0.6602 H   0  0  0  0  0  0  0  0  0  0  0  0
    5.3335   -3.2480    0.5801 H   0  0  0  0  0  0  0  0  0  0  0  0
    4.2972    4.2111   -0.4632 H   0  0  0  0  0  0  0  0  0  0  0  0
    1.8546    3.7744   -0.5450 H   0  0  0  0  0  0  0  0  0  0  0  0
    1.0410    1.4523   -0.2882 H   0  0  0  0  0  0  0  0  0  0  0  0
    0.3631   -1.4390   -2.1179 H   0  0  0  0  0  0  0  0  0  0  0  0
   -1.9186   -0.5605   -2.3776 H   0  0  0  0  0  0  0  0  0  0  0  0
  1  2  2  0
  2  3  1  0
  3  4  2  0
  4  5  1  0
  5  6  2  0
  5  7  1  0
  7  8  1  0
  8  9  2  0
  9 10  1  0
 10 11  1  0
 11 12  2  0
 12 13  1  0
 13 14  2  0
 14 15  1  0
 15 16  1  0
 16 17  1  0
 17 18  2  0
 18 19  1  0
 19 20  2  0
 20 21  1  0
 21 22  2  0
 22 23  1  0
 10 24  2  0
 24 25  1  0
 25 26  2  0
  6  1  1  0
 26  8  1  0
 26  4  1  0
 23 11  1  0
 23 15  2  0
 22 17  1  0
  1 27  1  0
  2 28  1  0
  3 29  1  0
  6 30  1  0
  9 31  1  0
 12 32  1  0
 13 33  1  0
 14 34  1  0
 19 35  1  0
 20 36  1  0
 21 37  1  0
 24 38  1  0
 25 39  1  0
M  END
