
     RDKit          3D

 39 44  0  0  0  0  0  0  0  0999 V2000
    6.7418   -1.3891   -0.3669 C   0  0  0  0  0  0  0  0  0  0  0  0
    6.1786   -1.6459    0.8738 C   0  0  0  0  0  0  0  0  0  0  0  0
    4.8662   -1.2485    1.1464 C   0  0  0  0  0  0  0  0  0  0  0  0
    4.0901   -0.5784    0.1639 C   0  0  0  0  0  0  0  0  0  0  0  0
    4.6841   -0.3335   -1.0747 C   0  0  0  0  0  0  0  0  0  0  0  0
    6.0067   -0.7322   -1.3551 C   0  0  0  0  0  0  0  0  0  0  0  0
    3.6112    0.4812   -2.1359 S   0  0  0  0  0  0  0  0  0  0  0  0
    2.3464    0.5244   -0.9785 C   0  0  0  0  0  0  0  0  0  0  0  0
    1.0626    1.0833   -1.1541 C   0  0  0  0  0  0  0  0  0  0  0  0
    0.1291    1.0339   -0.1073 C   0  0  0  0  0  0  0  0  0  0  0  0
   -1.2059    1.5986   -0.2790 C   0  0  0  0  0  0  0  0  0  0  0  0
   -1.4539    2.9640   -0.4209 C   0  0  0  0  0  0  0  0  0  0  0  0
   -2.6730    3.5320   -0.5775 N   0  0  0  0  0  0  0  0  0  0  0  0
   -3.7658    2.7321   -0.6039 C   0  0  0  0  0  0  0  0  0  0  0  0
   -3.6377    1.3428   -0.4780 C   0  0  0  0  0  0  0  0  0  0  0  0
   -2.3599    0.8030   -0.3199 C   0  0  0  0  0  0  0  0  0  0  0  0
   -2.5094   -0.5644   -0.2407 N   0  0  0  0  0  0  0  0  0  0  0  0
   -3.8334   -0.9203   -0.3219 C   0  0  0  0  0  0  0  0  0  0  0  0
   -4.4388   -2.1743   -0.2803 C   0  0  0  0  0  0  0  0  0  0  0  0
   -5.8203   -2.1610   -0.3968 C   0  0  0  0  0  0  0  0  0  0  0  0
   -6.5747   -1.0498   -0.5425 N   0  0  0  0  0  0  0  0  0  0  0  0
   -5.9610    0.1589   -0.5824 C   0  0  0  0  0  0  0  0  0  0  0  0
   -4.5678    0.2554   -0.4717 C   0  0  0  0  0  0  0  0  0  0  0  0
    0.4999    0.4339    1.0973 C   0  0  0  0  0  0  0  0  0  0  0  0
    1.7757   -0.1166    1.2683 C   0  0  0  0  0  0  0  0  0  0  0  0
    2.7278   -0.0799    0.2184 C   0  0  0  0  0  0  0  0  0  0  0  0
    7.7633   -1.6996   -0.5741 H   0  0  0  0  0  0  0  0  0  0  0  0
    6.7580   -2.1572    1.6388 H   0  0  0  0  0  0  0  0  0  0  0  0
    4.4409   -1.4569    2.1249 H   0  0  0  0  0  0  0  0  0  0  0  0
    6.4504   -0.5312   -2.3264 H   0  0  0  0  0  0  0  0  0  0  0  0
    0.8000    1.5416   -2.1056 H   0  0  0  0  0  0  0  0  0  0  0  0
   -0.6312    3.6764   -0.4041 H   0  0  0  0  0  0  0  0  0  0  0  0
   -4.7209    3.2295   -0.7299 H   0  0  0  0  0  0  0  0  0  0  0  0
   -1.7419   -1.2144   -0.1414 H   0  0  0  0  0  0  0  0  0  0  0  0
   -3.8817   -3.0950   -0.1670 H   0  0  0  0  0  0  0  0  0  0  0  0
   -6.3825   -3.0914   -0.3754 H   0  0  0  0  0  0  0  0  0  0  0  0
   -6.6075    1.0207   -0.7026 H   0  0  0  0  0  0  0  0  0  0  0  0
   -0.2013    0.3992    1.9303 H   0  0  0  0  0  0  0  0  0  0  0  0
    2.0358   -0.5712    2.2213 H   0  0  0  0  0  0  0  0  0  0  0  0
  1  2  2  0
  2  3  1  0
  3  4  2  0
  4  5  1  0
  5  6  2  0
  5  7  1  0
  7  8  1  0
  8  9  2  0
  9 10  1  0
 10 11  1  0
 11 12  2  0
 12 13  1  0
 13 14  2  0
 14 15  1  0
 15 16  2  0
 16 17  1  0
 17 18  1  0
 18 19  2  0
 19 20  1  0
 20 21  2  0
 21 22  1  0
 22 23  2  0
 10 24  2  0
 24 25  1  0
 25 26  2  0
  6  1  1  0
 26  8  1  0
 26  4  1  0
 16 11  1  0
 23 18  1  0
 23 15  1  0
  1 27  1  0
  2 28  1  0
  3 29  1  0
  6 30  1  0
  9 31  1  0
 12 32  1  0
 14 33  1  0
 17 34  1  0
 19 35  1  0
 20 36  1  0
 22 37  1  0
 24 38  1  0
 25 39  1  0
M  END
