
     RDKit          3D

 35 40  0  0  0  0  0  0  0  0999 V2000
   -6.9808   -0.7058    0.7316 C   0  0  0  0  0  0  0  0  0  0  0  0
   -6.7758    0.4476   -0.0100 C   0  0  0  0  0  0  0  0  0  0  0  0
   -5.4779    0.8552   -0.3325 C   0  0  0  0  0  0  0  0  0  0  0  0
   -4.3521    0.1004    0.0910 C   0  0  0  0  0  0  0  0  0  0  0  0
   -4.5898   -1.0554    0.8358 C   0  0  0  0  0  0  0  0  0  0  0  0
   -5.8962   -1.4711    1.1637 C   0  0  0  0  0  0  0  0  0  0  0  0
   -3.1257   -1.8404    1.2617 S   0  0  0  0  0  0  0  0  0  0  0  0
   -2.1556   -0.6682    0.4705 C   0  0  0  0  0  0  0  0  0  0  0  0
   -0.7466   -0.6522    0.3910 C   0  0  0  0  0  0  0  0  0  0  0  0
   -0.0817    0.3797   -0.2962 C   0  0  0  0  0  0  0  0  0  0  0  0
    1.3974    0.3496   -0.3498 C   0  0  0  0  0  0  0  0  0  0  0  0
    2.1279   -0.5949    0.2133 N   0  0  0  0  0  0  0  0  0  0  0  0
    3.4749   -0.3679    0.0031 C   0  0  0  0  0  0  0  0  0  0  0  0
    4.5297   -1.1686    0.4590 C   0  0  0  0  0  0  0  0  0  0  0  0
    5.8505   -0.8225    0.1746 C   0  0  0  0  0  0  0  0  0  0  0  0
    7.3148   -1.6178    0.6070 S   0  0  0  0  0  0  0  0  0  0  0  0
    8.2026   -0.4017   -0.2080 C   0  0  0  0  0  0  0  0  0  0  0  0
    7.5011    0.5515   -0.7781 N   0  0  0  0  0  0  0  0  0  0  0  0
    6.1525    0.3211   -0.5657 C   0  0  0  0  0  0  0  0  0  0  0  0
    5.0958    1.1202   -1.0205 C   0  0  0  0  0  0  0  0  0  0  0  0
    3.7757    0.7725   -0.7350 C   0  0  0  0  0  0  0  0  0  0  0  0
    2.3140    1.5619   -1.1639 S   0  0  0  0  0  0  0  0  0  0  0  0
   -0.8567    1.3784   -0.8915 C   0  0  0  0  0  0  0  0  0  0  0  0
   -2.2574    1.3600   -0.8110 C   0  0  0  0  0  0  0  0  0  0  0  0
   -2.9338    0.3242   -0.1208 C   0  0  0  0  0  0  0  0  0  0  0  0
   -7.9922   -1.0190    0.9800 H   0  0  0  0  0  0  0  0  0  0  0  0
   -7.6256    1.0385   -0.3431 H   0  0  0  0  0  0  0  0  0  0  0  0
   -5.3351    1.7621   -0.9147 H   0  0  0  0  0  0  0  0  0  0  0  0
   -6.0589   -2.3747    1.7448 H   0  0  0  0  0  0  0  0  0  0  0  0
   -0.1759   -1.4478    0.8676 H   0  0  0  0  0  0  0  0  0  0  0  0
    4.3030   -2.0607    1.0360 H   0  0  0  0  0  0  0  0  0  0  0  0
    9.2840   -0.4233   -0.2475 H   0  0  0  0  0  0  0  0  0  0  0  0
    5.3214    2.0125   -1.5976 H   0  0  0  0  0  0  0  0  0  0  0  0
   -0.4006    2.2016   -1.4361 H   0  0  0  0  0  0  0  0  0  0  0  0
   -2.8265    2.1551   -1.2873 H   0  0  0  0  0  0  0  0  0  0  0  0
  1  2  2  0
  2  3  1  0
  3  4  2  0
  4  5  1  0
  5  6  2  0
  5  7  1  0
  7  8  1  0
  8  9  2  0
  9 10  1  0
 10 11  1  0
 11 12  2  0
 12 13  1  0
 13 14  2  0
 14 15  1  0
 15 16  1  0
 16 17  1  0
 17 18  2  0
 18 19  1  0
 19 20  1  0
 20 21  2  0
 21 22  1  0
 10 23  2  0
 23 24  1  0
 24 25  2  0
  6  1  1  0
 25  8  1  0
 25  4  1  0
 22 11  1  0
 21 13  1  0
 19 15  2  0
  1 26  1  0
  2 27  1  0
  3 28  1  0
  6 29  1  0
  9 30  1  0
 14 31  1  0
 17 32  1  0
 20 33  1  0
 23 34  1  0
 24 35  1  0
M  END
