
     RDKit          3D

 45 52  0  0  0  0  0  0  0  0999 V2000
   -3.0744    2.5076   -2.9550 Si  0  0  0  0  0  4  0  0  0  0  0  0
   -4.1715    1.6961   -1.6801 C   0  0  0  0  0  0  0  0  0  0  0  0
   -3.4660    0.9133   -0.8342 C   0  0  0  0  0  0  0  0  0  0  0  0
   -4.0663   -0.0226    0.1491 C   0  0  0  0  0  0  0  0  0  0  0  0
   -5.4565    0.0406    0.4568 C   0  0  0  0  0  0  0  0  0  0  0  0
   -6.1054   -0.8518    1.3197 C   0  0  0  0  0  0  0  0  0  0  0  0
   -5.2964   -1.8513    1.8951 C   0  0  0  0  0  0  0  0  0  0  0  0
   -5.7420   -2.7951    2.7383 N   0  0  0  0  0  0  0  0  0  0  0  0
   -4.4279   -3.7139    3.1474 S   0  0  0  0  0  0  0  0  0  0  0  0
   -3.2471   -2.9562    2.2793 N   0  0  0  0  0  0  0  0  0  0  0  0
   -3.8100   -1.9360    1.6038 C   0  0  0  0  0  0  0  0  0  0  0  0
   -3.1801   -0.9956    0.7185 C   0  0  0  0  0  0  0  0  0  0  0  0
   -1.7157   -0.9683    0.4678 C   0  0  0  0  0  0  0  0  0  0  0  0
   -0.9918   -1.9583    1.0348 N   0  0  0  0  0  0  0  0  0  0  0  0
    0.3514   -1.9061    0.9760 C   0  0  0  0  0  0  0  0  0  0  0  0
    1.0794   -0.8558    0.4432 C   0  0  0  0  0  0  0  0  0  0  0  0
    2.4983   -0.8987    0.5296 C   0  0  0  0  0  0  0  0  0  0  0  0
    3.3626    0.1328    0.1107 C   0  0  0  0  0  0  0  0  0  0  0  0
    4.8215    0.0379    0.2110 C   0  0  0  0  0  0  0  0  0  0  0  0
    5.5152   -1.0855   -0.2618 C   0  0  0  0  0  0  0  0  0  0  0  0
    6.9017   -1.1661   -0.1382 C   0  0  0  0  0  0  0  0  0  0  0  0
    7.5689   -0.1154    0.4651 C   0  0  0  0  0  0  0  0  0  0  0  0
    6.9514    0.9842    0.9398 N   0  0  0  0  0  0  0  0  0  0  0  0
    5.6030    1.0364    0.7967 C   0  0  0  0  0  0  0  0  0  0  0  0
    2.6960    1.2871   -0.3794 C   0  0  0  0  0  0  0  0  0  0  0  0
    3.2895    2.4218   -0.7908 N   0  0  0  0  0  0  0  0  0  0  0  0
    2.0937    3.4862   -1.1862 S   0  0  0  0  0  0  0  0  0  0  0  0
    0.7636    2.5594   -0.8885 N   0  0  0  0  0  0  0  0  0  0  0  0
    1.1775    1.3420   -0.4924 C   0  0  0  0  0  0  0  0  0  0  0  0
    0.3336    0.2096   -0.1395 C   0  0  0  0  0  0  0  0  0  0  0  0
   -1.0959    0.0787   -0.2469 C   0  0  0  0  0  0  0  0  0  0  0  0
   -2.0025    0.9176   -1.0717 C   0  0  0  0  0  0  0  0  0  0  0  0
   -1.6513    1.5821   -2.1932 C   0  0  0  0  0  0  0  0  0  0  0  0
   -2.9864    3.9756   -2.7691 H   0  0  0  0  0  0  0  0  0  0  0  0
   -3.3850    2.0470   -4.3295 H   0  0  0  0  0  0  0  0  0  0  0  0
   -5.2387    1.8195   -1.7553 H   0  0  0  0  0  0  0  0  0  0  0  0
   -6.0759    0.8169    0.0098 H   0  0  0  0  0  0  0  0  0  0  0  0
   -7.1652   -0.7844    1.5333 H   0  0  0  0  0  0  0  0  0  0  0  0
    0.8372   -2.7635    1.4380 H   0  0  0  0  0  0  0  0  0  0  0  0
    2.9587   -1.7838    0.9784 H   0  0  0  0  0  0  0  0  0  0  0  0
    4.9835   -1.9031   -0.7432 H   0  0  0  0  0  0  0  0  0  0  0  0
    7.4471   -2.0276   -0.5068 H   0  0  0  0  0  0  0  0  0  0  0  0
    8.6483   -0.1300    0.5851 H   0  0  0  0  0  0  0  0  0  0  0  0
    5.1538    1.9425    1.1972 H   0  0  0  0  0  0  0  0  0  0  0  0
   -0.6838    1.6344   -2.6627 H   0  0  0  0  0  0  0  0  0  0  0  0
  1  2  1  0
  2  3  2  0
  3  4  1  0
  4  5  1  0
  5  6  2  0
  6  7  1  0
  7  8  2  0
  8  9  1  0
  9 10  1  0
 10 11  2  0
 11 12  1  0
 12 13  1  0
 13 14  2  0
 14 15  1  0
 15 16  2  0
 16 17  1  0
 17 18  2  0
 18 19  1  0
 19 20  2  0
 20 21  1  0
 21 22  2  0
 22 23  1  0
 23 24  2  0
 18 25  1  0
 25 26  2  0
 26 27  1  0
 27 28  1  0
 28 29  2  0
 29 30  1  0
 30 31  2  0
 31 32  1  0
 32 33  2  0
 33  1  1  0
 32  3  1  0
 12  4  2  0
 31 13  1  0
 11  7  1  0
 30 16  1  0
 24 19  1  0
 29 25  1  0
  1 34  1  0
  1 35  1  0
  2 36  1  0
  5 37  1  0
  6 38  1  0
 15 39  1  0
 17 40  1  0
 20 41  1  0
 21 42  1  0
 22 43  1  0
 24 44  1  0
 33 45  1  0
M  END
