
     RDKit          3D

 25 27  0  0  0  0  0  0  0  0999 V2000
    3.7236   -0.7181   -0.1058 C   0  0  0  0  0  0  0  0  0  0  0  0
    2.7656   -1.6845    0.1888 C   0  0  0  0  0  0  0  0  0  0  0  0
    1.4046   -1.3583    0.2024 C   0  0  0  0  0  0  0  0  0  0  0  0
    1.0011   -0.0359   -0.0816 C   0  0  0  0  0  0  0  0  0  0  0  0
   -0.2622    0.6340   -0.1570 C   0  0  0  0  0  0  0  0  0  0  0  0
   -1.6021    0.1288    0.0878 C   0  0  0  0  0  0  0  0  0  0  0  0
   -1.8851   -0.5760    1.2575 C   0  0  0  0  0  0  0  0  0  0  0  0
   -3.1760   -1.0388    1.4501 C   0  0  0  0  0  0  0  0  0  0  0  0
   -4.1818   -0.8507    0.5692 N   0  0  0  0  0  0  0  0  0  0  0  0
   -3.8818   -0.1659   -0.5551 C   0  0  0  0  0  0  0  0  0  0  0  0
   -2.6241    0.3398   -0.8383 C   0  0  0  0  0  0  0  0  0  0  0  0
   -0.0083    1.9462   -0.5040 C   0  0  0  0  0  0  0  0  0  0  0  0
    1.3466    2.0978   -0.6332 N   0  0  0  0  0  0  0  0  0  0  0  0
    1.9869    0.9065   -0.3815 C   0  0  0  0  0  0  0  0  0  0  0  0
    3.3525    0.5973   -0.3987 C   0  0  0  0  0  0  0  0  0  0  0  0
    4.7765   -0.9907   -0.1126 H   0  0  0  0  0  0  0  0  0  0  0  0
    3.0748   -2.7037    0.4072 H   0  0  0  0  0  0  0  0  0  0  0  0
    0.6666   -2.1238    0.4231 H   0  0  0  0  0  0  0  0  0  0  0  0
   -1.1256   -0.7527    2.0112 H   0  0  0  0  0  0  0  0  0  0  0  0
   -3.4439   -1.5886    2.3477 H   0  0  0  0  0  0  0  0  0  0  0  0
   -4.7071   -0.0307   -1.2482 H   0  0  0  0  0  0  0  0  0  0  0  0
   -2.4485    0.8741   -1.7652 H   0  0  0  0  0  0  0  0  0  0  0  0
   -0.6706    2.7883   -0.6555 H   0  0  0  0  0  0  0  0  0  0  0  0
    1.8162    2.9592   -0.8751 H   0  0  0  0  0  0  0  0  0  0  0  0
    4.1020    1.3463   -0.6325 H   0  0  0  0  0  0  0  0  0  0  0  0
  1  2  2  0
  2  3  1  0
  3  4  2  0
  4  5  1  0
  5  6  1  0
  6  7  2  0
  7  8  1  0
  8  9  2  0
  9 10  1  0
 10 11  2  0
  5 12  2  0
 12 13  1  0
 13 14  1  0
 14 15  2  0
 15  1  1  0
 14  4  1  0
 11  6  1  0
  1 16  1  0
  2 17  1  0
  3 18  1  0
  7 19  1  0
  8 20  1  0
 10 21  1  0
 11 22  1  0
 12 23  1  0
 13 24  1  0
 15 25  1  0
M  END
