
     RDKit          3D

 49 55  0  0  0  0  0  0  0  0999 V2000
    6.3825    0.1454   -2.3317 C   0  0  0  0  0  0  0  0  0  0  0  0
    5.0322    0.3669   -2.5647 C   0  0  0  0  0  0  0  0  0  0  0  0
    4.1064    0.1677   -1.5380 C   0  0  0  0  0  0  0  0  0  0  0  0
    4.5047   -0.2604   -0.2487 C   0  0  0  0  0  0  0  0  0  0  0  0
    3.5944   -0.4771    0.8269 C   0  0  0  0  0  0  0  0  0  0  0  0
    4.0866   -0.8940    2.0776 C   0  0  0  0  0  0  0  0  0  0  0  0
    5.4470   -1.1023    2.2787 C   0  0  0  0  0  0  0  0  0  0  0  0
    6.3401   -0.8964    1.2316 C   0  0  0  0  0  0  0  0  0  0  0  0
    5.8892   -0.4781   -0.0287 C   0  0  0  0  0  0  0  0  0  0  0  0
    6.8074   -0.2736   -1.0721 C   0  0  0  0  0  0  0  0  0  0  0  0
    2.1480   -0.2836    0.6820 C   0  0  0  0  0  0  0  0  0  0  0  0
    1.3230   -1.2634    0.1654 C   0  0  0  0  0  0  0  0  0  0  0  0
   -0.0197   -1.1316    0.0115 N   0  0  0  0  0  0  0  0  0  0  0  0
   -0.6621    0.0075    0.3691 C   0  0  0  0  0  0  0  0  0  0  0  0
    0.1283    1.0401    0.9045 C   0  0  0  0  0  0  0  0  0  0  0  0
   -0.4917    2.2063    1.2757 C   0  0  0  0  0  0  0  0  0  0  0  0
   -1.8063    2.4054    1.1532 N   0  0  0  0  0  0  0  0  0  0  0  0
   -2.6025    1.4411    0.6444 C   0  0  0  0  0  0  0  0  0  0  0  0
   -3.9640    1.7402    0.5547 C   0  0  0  0  0  0  0  0  0  0  0  0
   -4.3963    2.9599    0.9771 N   0  0  0  0  0  0  0  0  0  0  0  0
   -5.6966    3.2914    0.9097 C   0  0  0  0  0  0  0  0  0  0  0  0
   -6.6537    2.4441    0.4228 C   0  0  0  0  0  0  0  0  0  0  0  0
   -6.2336    1.1945   -0.0134 C   0  0  0  0  0  0  0  0  0  0  0  0
   -4.8697    0.7934    0.0358 C   0  0  0  0  0  0  0  0  0  0  0  0
   -4.4016   -0.4821   -0.4035 C   0  0  0  0  0  0  0  0  0  0  0  0
   -5.2866   -1.4646   -0.9337 C   0  0  0  0  0  0  0  0  0  0  0  0
   -4.8617   -2.7154   -1.3697 C   0  0  0  0  0  0  0  0  0  0  0  0
   -3.5257   -3.0274   -1.2889 C   0  0  0  0  0  0  0  0  0  0  0  0
   -2.6342   -2.0849   -0.7737 C   0  0  0  0  0  0  0  0  0  0  0  0
   -3.0167   -0.7907   -0.3138 C   0  0  0  0  0  0  0  0  0  0  0  0
   -2.0856    0.1910    0.2232 C   0  0  0  0  0  0  0  0  0  0  0  0
    1.5191    0.8953    1.0604 C   0  0  0  0  0  0  0  0  0  0  0  0
    7.1065    0.2992   -3.1274 H   0  0  0  0  0  0  0  0  0  0  0  0
    4.6938    0.6959   -3.5439 H   0  0  0  0  0  0  0  0  0  0  0  0
    3.0579    0.3562   -1.7607 H   0  0  0  0  0  0  0  0  0  0  0  0
    3.4003   -1.0624    2.9062 H   0  0  0  0  0  0  0  0  0  0  0  0
    5.8116   -1.4259    3.2502 H   0  0  0  0  0  0  0  0  0  0  0  0
    7.4006   -1.0653    1.4085 H   0  0  0  0  0  0  0  0  0  0  0  0
    7.8705   -0.4398   -0.9097 H   0  0  0  0  0  0  0  0  0  0  0  0
    1.7229   -2.2221   -0.1569 H   0  0  0  0  0  0  0  0  0  0  0  0
    0.0543    3.0464    1.6955 H   0  0  0  0  0  0  0  0  0  0  0  0
   -5.9431    4.2851    1.2701 H   0  0  0  0  0  0  0  0  0  0  0  0
   -7.6954    2.7383    0.3804 H   0  0  0  0  0  0  0  0  0  0  0  0
   -7.0064    0.5359   -0.3963 H   0  0  0  0  0  0  0  0  0  0  0  0
   -6.3524   -1.2759   -1.0223 H   0  0  0  0  0  0  0  0  0  0  0  0
   -5.5742   -3.4325   -1.7669 H   0  0  0  0  0  0  0  0  0  0  0  0
   -3.1614   -3.9957   -1.6209 H   0  0  0  0  0  0  0  0  0  0  0  0
   -1.5999   -2.4106   -0.7448 H   0  0  0  0  0  0  0  0  0  0  0  0
    2.1138    1.7082    1.4741 H   0  0  0  0  0  0  0  0  0  0  0  0
  1  2  2  0
  2  3  1  0
  3  4  2  0
  4  5  1  0
  5  6  2  0
  6  7  1  0
  7  8  2  0
  8  9  1  0
  9 10  2  0
  5 11  1  0
 11 12  2  0
 12 13  1  0
 13 14  2  0
 14 15  1  0
 15 16  1  0
 16 17  2  0
 17 18  1  0
 18 19  2  0
 19 20  1  0
 20 21  2  0
 21 22  1  0
 22 23  2  0
 23 24  1  0
 24 25  2  0
 25 26  1  0
 26 27  2  0
 27 28  1  0
 28 29  2  0
 29 30  1  0
 30 31  2  0
 15 32  2  0
 10  1  1  0
 32 11  1  0
  9  4  1  0
 31 14  1  0
 31 18  1  0
 24 19  1  0
 30 25  1  0
  1 33  1  0
  2 34  1  0
  3 35  1  0
  6 36  1  0
  7 37  1  0
  8 38  1  0
 10 39  1  0
 12 40  1  0
 16 41  1  0
 21 42  1  0
 22 43  1  0
 23 44  1  0
 26 45  1  0
 27 46  1  0
 28 47  1  0
 29 48  1  0
 32 49  1  0
M  END
