
     RDKit          3D

 25 27  0  0  0  0  0  0  0  0999 V2000
   -3.1689    1.6380   -0.2608 C   0  0  0  0  0  0  0  0  0  0  0  0
   -1.9707    2.3288   -0.2706 C   0  0  0  0  0  0  0  0  0  0  0  0
   -0.7612    1.6302   -0.1831 C   0  0  0  0  0  0  0  0  0  0  0  0
   -0.6897    0.2117   -0.0712 C   0  0  0  0  0  0  0  0  0  0  0  0
    0.5003   -0.5962    0.0244 C   0  0  0  0  0  0  0  0  0  0  0  0
    1.8229   -0.0408    0.1021 N   0  0  0  0  0  0  0  0  0  0  0  0
    3.0268   -0.7101   -0.0714 C   0  0  0  0  0  0  0  0  0  0  0  0
    4.0425    0.1873    0.1530 C   0  0  0  0  0  0  0  0  0  0  0  0
    3.3846    1.3829    0.4514 C   0  0  0  0  0  0  0  0  0  0  0  0
    2.0599    1.2581    0.4171 N   0  0  0  0  0  0  0  0  0  0  0  0
    0.3899   -2.0028    0.0689 C   0  0  0  0  0  0  0  0  0  0  0  0
   -0.8514   -2.6271    0.0412 C   0  0  0  0  0  0  0  0  0  0  0  0
   -2.0056   -1.8613   -0.0312 C   0  0  0  0  0  0  0  0  0  0  0  0
   -1.9442   -0.4635   -0.0891 C   0  0  0  0  0  0  0  0  0  0  0  0
   -3.1525    0.2504   -0.1747 C   0  0  0  0  0  0  0  0  0  0  0  0
   -4.1119    2.1726   -0.3274 H   0  0  0  0  0  0  0  0  0  0  0  0
   -1.9624    3.4128   -0.3483 H   0  0  0  0  0  0  0  0  0  0  0  0
    0.1378    2.2378   -0.2169 H   0  0  0  0  0  0  0  0  0  0  0  0
    3.0702   -1.7481   -0.3606 H   0  0  0  0  0  0  0  0  0  0  0  0
    5.1052    0.0010    0.0981 H   0  0  0  0  0  0  0  0  0  0  0  0
    3.8130    2.3480    0.6904 H   0  0  0  0  0  0  0  0  0  0  0  0
    1.2568   -2.6495    0.1660 H   0  0  0  0  0  0  0  0  0  0  0  0
   -0.9200   -3.7110    0.0888 H   0  0  0  0  0  0  0  0  0  0  0  0
   -2.9666   -2.3724   -0.0458 H   0  0  0  0  0  0  0  0  0  0  0  0
   -4.1047   -0.2769   -0.1799 H   0  0  0  0  0  0  0  0  0  0  0  0
  1  2  2  0
  2  3  1  0
  3  4  2  0
  4  5  1  0
  5  6  1  0
  6  7  1  0
  7  8  2  0
  8  9  1  0
  9 10  2  0
  5 11  2  0
 11 12  1  0
 12 13  2  0
 13 14  1  0
 14 15  2  0
 15  1  1  0
 14  4  1  0
 10  6  1  0
  1 16  1  0
  2 17  1  0
  3 18  1  0
  7 19  1  0
  8 20  1  0
  9 21  1  0
 11 22  1  0
 12 23  1  0
 13 24  1  0
 15 25  1  0
M  END
