
     RDKit          3D

 48 53  0  0  0  0  0  0  0  0999 V2000
   -2.3672    0.6797   -2.8826 C   0  0  0  0  0  0  0  0  0  0  0  0
   -1.3140    0.2582   -3.9079 C   0  0  0  0  0  0  0  0  0  0  0  0
   -0.1389   -0.0437   -3.3102 C   0  0  0  0  0  0  0  0  0  0  0  0
   -0.2609    0.1254   -1.9037 C   0  0  0  0  0  0  0  0  0  0  0  0
   -1.5775    0.5682   -1.6241 C   0  0  0  0  0  0  0  0  0  0  0  0
   -1.7920    0.7884   -0.2917 C   0  0  0  0  0  0  0  0  0  0  0  0
   -0.3560    0.4588    0.6002 S   0  0  0  0  0  0  0  0  0  0  0  0
    0.5581   -0.0173   -0.8115 C   0  0  0  0  0  0  0  0  0  0  0  0
    1.9099   -0.4380   -0.6573 C   0  0  0  0  0  0  0  0  0  0  0  0
    2.9066   -0.0865    0.4327 C   0  0  0  0  0  0  0  0  0  0  0  0
    4.1341   -0.8527    0.0227 C   0  0  0  0  0  0  0  0  0  0  0  0
    3.8673   -1.5339   -1.1039 C   0  0  0  0  0  0  0  0  0  0  0  0
    2.5089   -1.2853   -1.5144 C   0  0  0  0  0  0  0  0  0  0  0  0
    5.3996   -0.8391    0.7569 C   0  0  0  0  0  0  0  0  0  0  0  0
    5.5670   -0.1050    1.9285 C   0  0  0  0  0  0  0  0  0  0  0  0
    6.8000   -0.1358    2.5787 C   0  0  0  0  0  0  0  0  0  0  0  0
    7.8324   -0.8954    2.0459 C   0  0  0  0  0  0  0  0  0  0  0  0
    7.5870   -1.5959    0.8791 C   0  0  0  0  0  0  0  0  0  0  0  0
    6.4028   -1.5835    0.2291 N   0  0  0  0  0  0  0  0  0  0  0  0
   -3.0002    1.2432    0.3972 C   0  0  0  0  0  0  0  0  0  0  0  0
   -3.0819    2.5994    0.7538 C   0  0  0  0  0  0  0  0  0  0  0  0
   -4.2156    3.0988    1.3855 C   0  0  0  0  0  0  0  0  0  0  0  0
   -5.2828    2.2487    1.6643 C   0  0  0  0  0  0  0  0  0  0  0  0
   -5.2334    0.8891    1.3192 C   0  0  0  0  0  0  0  0  0  0  0  0
   -6.3212    0.0481    1.6087 C   0  0  0  0  0  0  0  0  0  0  0  0
   -6.2915   -1.3058    1.2776 C   0  0  0  0  0  0  0  0  0  0  0  0
   -5.1716   -1.8387    0.6538 C   0  0  0  0  0  0  0  0  0  0  0  0
   -4.0823   -1.0162    0.3589 C   0  0  0  0  0  0  0  0  0  0  0  0
   -4.0831    0.3635    0.6779 C   0  0  0  0  0  0  0  0  0  0  0  0
   -2.6997    1.7052   -3.0654 H   0  0  0  0  0  0  0  0  0  0  0  0
   -3.2177   -0.0074   -2.8936 H   0  0  0  0  0  0  0  0  0  0  0  0
   -1.4992    0.2220   -4.9710 H   0  0  0  0  0  0  0  0  0  0  0  0
    0.7608   -0.3511   -3.8231 H   0  0  0  0  0  0  0  0  0  0  0  0
    2.5473   -0.4162    1.4136 H   0  0  0  0  0  0  0  0  0  0  0  0
    3.0947    0.9927    0.4461 H   0  0  0  0  0  0  0  0  0  0  0  0
    4.5535   -2.1773   -1.6356 H   0  0  0  0  0  0  0  0  0  0  0  0
    2.0742   -1.7543   -2.3834 H   0  0  0  0  0  0  0  0  0  0  0  0
    4.7617    0.4883    2.3469 H   0  0  0  0  0  0  0  0  0  0  0  0
    6.9500    0.4295    3.4941 H   0  0  0  0  0  0  0  0  0  0  0  0
    8.8028   -0.9411    2.5267 H   0  0  0  0  0  0  0  0  0  0  0  0
    8.3590   -2.2060    0.4192 H   0  0  0  0  0  0  0  0  0  0  0  0
   -2.2557    3.2726    0.5339 H   0  0  0  0  0  0  0  0  0  0  0  0
   -4.2691    4.1491    1.6590 H   0  0  0  0  0  0  0  0  0  0  0  0
   -6.1615    2.6586    2.1584 H   0  0  0  0  0  0  0  0  0  0  0  0
   -7.2070    0.4450    2.1004 H   0  0  0  0  0  0  0  0  0  0  0  0
   -7.1410   -1.9421    1.5106 H   0  0  0  0  0  0  0  0  0  0  0  0
   -5.1386   -2.8943    0.3975 H   0  0  0  0  0  0  0  0  0  0  0  0
   -3.2182   -1.4701   -0.1228 H   0  0  0  0  0  0  0  0  0  0  0  0
  1  2  1  0
  2  3  2  0
  3  4  1  0
  4  5  1  0
  5  6  2  0
  6  7  1  0
  7  8  1  0
  8  9  1  0
  9 10  1  0
 10 11  1  0
 11 12  2  0
 12 13  1  0
 11 14  1  0
 14 15  2  0
 15 16  1  0
 16 17  2  0
 17 18  1  0
 18 19  2  0
  6 20  1  0
 20 21  2  0
 21 22  1  0
 22 23  2  0
 23 24  1  0
 24 25  2  0
 25 26  1  0
 26 27  2  0
 27 28  1  0
 28 29  2  0
  5  1  1  0
 13  9  2  0
 19 14  1  0
 29 20  1  0
  8  4  2  0
 29 24  1  0
  1 30  1  0
  1 31  1  0
  2 32  1  0
  3 33  1  0
 10 34  1  0
 10 35  1  0
 12 36  1  0
 13 37  1  0
 15 38  1  0
 16 39  1  0
 17 40  1  0
 18 41  1  0
 21 42  1  0
 22 43  1  0
 23 44  1  0
 25 45  1  0
 26 46  1  0
 27 47  1  0
 28 48  1  0
M  END
