
     RDKit          3D

 38 42  0  0  0  0  0  0  0  0999 V2000
    3.5519   -0.9950   -1.8956 C   0  0  0  0  0  0  0  0  0  0  0  0
    2.2841   -1.3521   -2.6669 C   0  0  0  0  0  0  0  0  0  0  0  0
    1.1768   -0.9880   -1.9843 C   0  0  0  0  0  0  0  0  0  0  0  0
    1.5510   -0.3823   -0.7531 C   0  0  0  0  0  0  0  0  0  0  0  0
    2.9696   -0.3708   -0.6687 C   0  0  0  0  0  0  0  0  0  0  0  0
    3.4349    0.1977    0.4917 C   0  0  0  0  0  0  0  0  0  0  0  0
    2.0835    0.7044    1.4497 S   0  0  0  0  0  0  0  0  0  0  0  0
    0.8800    0.1634    0.3124 C   0  0  0  0  0  0  0  0  0  0  0  0
   -0.5243    0.3079    0.5416 C   0  0  0  0  0  0  0  0  0  0  0  0
   -1.6717   -0.1149   -0.3558 C   0  0  0  0  0  0  0  0  0  0  0  0
   -2.8970    0.3002    0.4234 C   0  0  0  0  0  0  0  0  0  0  0  0
   -2.4958    0.8652    1.5741 C   0  0  0  0  0  0  0  0  0  0  0  0
   -1.0560    0.8693    1.6444 C   0  0  0  0  0  0  0  0  0  0  0  0
   -4.2681    0.0896   -0.0581 C   0  0  0  0  0  0  0  0  0  0  0  0
   -5.3897    0.4836    0.6806 C   0  0  0  0  0  0  0  0  0  0  0  0
   -6.6764    0.2649    0.1863 C   0  0  0  0  0  0  0  0  0  0  0  0
   -6.8130   -0.3479   -1.0457 C   0  0  0  0  0  0  0  0  0  0  0  0
   -5.7683   -0.7465   -1.7972 N   0  0  0  0  0  0  0  0  0  0  0  0
   -4.5315   -0.5187   -1.2868 C   0  0  0  0  0  0  0  0  0  0  0  0
    4.7861    0.4033    0.9625 C   0  0  0  0  0  0  0  0  0  0  0  0
    5.0562    0.9756    2.1210 N   0  0  0  0  0  0  0  0  0  0  0  0
    6.4199    1.0449    2.3192 C   0  0  0  0  0  0  0  0  0  0  0  0
    7.1921    0.5231    1.3072 C   0  0  0  0  0  0  0  0  0  0  0  0
    6.1792   -0.0750    0.0646 S   0  0  0  0  0  0  0  0  0  0  0  0
    4.1244   -1.8973   -1.6634 H   0  0  0  0  0  0  0  0  0  0  0  0
    4.1591   -0.2868   -2.4662 H   0  0  0  0  0  0  0  0  0  0  0  0
    2.2898   -1.8340   -3.6334 H   0  0  0  0  0  0  0  0  0  0  0  0
    0.1630   -1.1362   -2.3255 H   0  0  0  0  0  0  0  0  0  0  0  0
   -1.6207    0.4087   -1.3169 H   0  0  0  0  0  0  0  0  0  0  0  0
   -1.6553   -1.1987   -0.5153 H   0  0  0  0  0  0  0  0  0  0  0  0
   -3.1135    1.2707    2.3606 H   0  0  0  0  0  0  0  0  0  0  0  0
   -0.5290    1.2811    2.4930 H   0  0  0  0  0  0  0  0  0  0  0  0
   -5.2854    0.9651    1.6484 H   0  0  0  0  0  0  0  0  0  0  0  0
   -7.5498    0.5675    0.7531 H   0  0  0  0  0  0  0  0  0  0  0  0
   -7.7933   -0.5394   -1.4722 H   0  0  0  0  0  0  0  0  0  0  0  0
   -3.7312   -0.8612   -1.9367 H   0  0  0  0  0  0  0  0  0  0  0  0
    6.7998    1.4913    3.2301 H   0  0  0  0  0  0  0  0  0  0  0  0
    8.2689    0.4671    1.2418 H   0  0  0  0  0  0  0  0  0  0  0  0
  1  2  1  0
  2  3  2  0
  3  4  1  0
  4  5  1  0
  5  6  2  0
  6  7  1  0
  7  8  1  0
  8  9  1  0
  9 10  1  0
 10 11  1  0
 11 12  2  0
 12 13  1  0
 11 14  1  0
 14 15  2  0
 15 16  1  0
 16 17  2  0
 17 18  1  0
 18 19  2  0
  6 20  1  0
 20 21  2  0
 21 22  1  0
 22 23  2  0
 23 24  1  0
  5  1  1  0
 13  9  2  0
 19 14  1  0
 24 20  1  0
  8  4  2  0
  1 25  1  0
  1 26  1  0
  2 27  1  0
  3 28  1  0
 10 29  1  0
 10 30  1  0
 12 31  1  0
 13 32  1  0
 15 33  1  0
 16 34  1  0
 17 35  1  0
 19 36  1  0
 22 37  1  0
 23 38  1  0
M  END
