
     RDKit          3D

 36 40  0  0  0  0  0  0  0  0999 V2000
    2.9612   -2.2538   -0.2213 C   0  0  0  0  0  0  0  0  0  0  0  0
    1.5626   -2.8492   -0.3813 C   0  0  0  0  0  0  0  0  0  0  0  0
    0.6096   -1.8989   -0.2621 C   0  0  0  0  0  0  0  0  0  0  0  0
    1.2243   -0.6409   -0.0242 C   0  0  0  0  0  0  0  0  0  0  0  0
    2.6330   -0.8129    0.0072 C   0  0  0  0  0  0  0  0  0  0  0  0
    3.3108    0.3625    0.2339 C   0  0  0  0  0  0  0  0  0  0  0  0
    2.1605    1.6565    0.4025 S   0  0  0  0  0  0  0  0  0  0  0  0
    0.7864    0.6377    0.1723 C   0  0  0  0  0  0  0  0  0  0  0  0
   -0.5640    1.1302    0.1973 C   0  0  0  0  0  0  0  0  0  0  0  0
   -1.0389    2.4174    0.3937 C   0  0  0  0  0  0  0  0  0  0  0  0
   -2.4538    2.3642    0.3241 C   0  0  0  0  0  0  0  0  0  0  0  0
   -2.7880    1.0464    0.0879 C   0  0  0  0  0  0  0  0  0  0  0  0
   -1.6441    0.3050    0.0121 O   0  0  0  0  0  0  0  0  0  0  0  0
   -4.0455    0.3237   -0.0877 C   0  0  0  0  0  0  0  0  0  0  0  0
   -5.2760    0.9735   -0.0315 C   0  0  0  0  0  0  0  0  0  0  0  0
   -6.4405    0.2280   -0.2069 C   0  0  0  0  0  0  0  0  0  0  0  0
   -6.3461   -1.1392   -0.4325 C   0  0  0  0  0  0  0  0  0  0  0  0
   -5.0851   -1.7077   -0.4737 C   0  0  0  0  0  0  0  0  0  0  0  0
   -3.9408   -1.0108   -0.3074 N   0  0  0  0  0  0  0  0  0  0  0  0
    4.7280    0.6246    0.3386 C   0  0  0  0  0  0  0  0  0  0  0  0
    5.2133    1.8316    0.5626 N   0  0  0  0  0  0  0  0  0  0  0  0
    6.5916    1.7950    0.6153 C   0  0  0  0  0  0  0  0  0  0  0  0
    7.1583    0.5550    0.4308 C   0  0  0  0  0  0  0  0  0  0  0  0
    5.9262   -0.6063    0.1826 S   0  0  0  0  0  0  0  0  0  0  0  0
    3.5451   -2.4001   -1.1343 H   0  0  0  0  0  0  0  0  0  0  0  0
    3.4692   -2.6985    0.6390 H   0  0  0  0  0  0  0  0  0  0  0  0
    1.3743   -3.8963   -0.5655 H   0  0  0  0  0  0  0  0  0  0  0  0
   -0.4591   -2.0570   -0.3344 H   0  0  0  0  0  0  0  0  0  0  0  0
   -0.4342    3.2968    0.5676 H   0  0  0  0  0  0  0  0  0  0  0  0
   -3.1390    3.1920    0.4340 H   0  0  0  0  0  0  0  0  0  0  0  0
   -5.3424    2.0410    0.1450 H   0  0  0  0  0  0  0  0  0  0  0  0
   -7.4123    0.7120   -0.1674 H   0  0  0  0  0  0  0  0  0  0  0  0
   -7.2323   -1.7478   -0.5729 H   0  0  0  0  0  0  0  0  0  0  0  0
   -4.9553   -2.7721   -0.6469 H   0  0  0  0  0  0  0  0  0  0  0  0
    7.1385    2.7130    0.7932 H   0  0  0  0  0  0  0  0  0  0  0  0
    8.2043    0.2854    0.4301 H   0  0  0  0  0  0  0  0  0  0  0  0
  1  2  1  0
  2  3  2  0
  3  4  1  0
  4  5  1  0
  5  6  2  0
  6  7  1  0
  7  8  1  0
  8  9  1  0
  9 10  2  0
 10 11  1  0
 11 12  2  0
 12 13  1  0
 12 14  1  0
 14 15  2  0
 15 16  1  0
 16 17  2  0
 17 18  1  0
 18 19  2  0
  6 20  1  0
 20 21  2  0
 21 22  1  0
 22 23  2  0
 23 24  1  0
  5  1  1  0
 13  9  1  0
 19 14  1  0
 24 20  1  0
  8  4  2  0
  1 25  1  0
  1 26  1  0
  2 27  1  0
  3 28  1  0
 10 29  1  0
 11 30  1  0
 15 31  1  0
 16 32  1  0
 17 33  1  0
 18 34  1  0
 22 35  1  0
 23 36  1  0
M  END
