
     RDKit          3D

 50 56  0  0  0  0  0  0  0  0999 V2000
    0.8964   -2.4422   -0.0613 C   0  0  0  0  0  0  0  0  0  0  0  0
    2.2539   -3.1321    0.0858 C   0  0  0  0  0  0  0  0  0  0  0  0
    3.2486   -2.2291    0.2332 C   0  0  0  0  0  0  0  0  0  0  0  0
    2.7027   -0.9196    0.1993 C   0  0  0  0  0  0  0  0  0  0  0  0
    1.2994   -1.0056    0.0302 C   0  0  0  0  0  0  0  0  0  0  0  0
    0.6683    0.2184   -0.0012 C   0  0  0  0  0  0  0  0  0  0  0  0
    1.8797    1.4597    0.1920 S   0  0  0  0  0  0  0  0  0  0  0  0
    3.1943    0.3481    0.2977 C   0  0  0  0  0  0  0  0  0  0  0  0
    4.5459    0.8377    0.4631 C   0  0  0  0  0  0  0  0  0  0  0  0
    5.0007    1.6381    1.5418 C   0  0  0  0  0  0  0  0  0  0  0  0
    6.3594    2.0985    1.6894 C   0  0  0  0  0  0  0  0  0  0  0  0
    7.4033    1.8112    0.7782 C   0  0  0  0  0  0  0  0  0  0  0  0
    6.9284    1.0323   -0.2683 C   0  0  0  0  0  0  0  0  0  0  0  0
    7.6417    0.5701   -1.3412 C   0  0  0  0  0  0  0  0  0  0  0  0
    6.8146   -0.1478   -2.1623 O   0  0  0  0  0  0  0  0  0  0  0  0
    5.5646   -0.1364   -1.6029 C   0  0  0  0  0  0  0  0  0  0  0  0
    5.5883    0.5683   -0.4264 C   0  0  0  0  0  0  0  0  0  0  0  0
   -0.7232    0.5002   -0.1583 C   0  0  0  0  0  0  0  0  0  0  0  0
   -1.8576   -0.4884   -0.3670 C   0  0  0  0  0  0  0  0  0  0  0  0
   -3.0698    0.4004   -0.4467 C   0  0  0  0  0  0  0  0  0  0  0  0
   -2.6817    1.6793   -0.3290 C   0  0  0  0  0  0  0  0  0  0  0  0
   -1.2531    1.7386   -0.1457 C   0  0  0  0  0  0  0  0  0  0  0  0
   -4.4080   -0.1196   -0.6633 C   0  0  0  0  0  0  0  0  0  0  0  0
   -4.7156   -1.2165   -1.5114 C   0  0  0  0  0  0  0  0  0  0  0  0
   -6.0414   -1.7380   -1.7241 C   0  0  0  0  0  0  0  0  0  0  0  0
   -7.2030   -1.2298   -1.1034 C   0  0  0  0  0  0  0  0  0  0  0  0
   -6.8819   -0.1727   -0.2635 C   0  0  0  0  0  0  0  0  0  0  0  0
   -7.7720    0.5246    0.5111 C   0  0  0  0  0  0  0  0  0  0  0  0
   -7.0418    1.4593    1.2117 N   0  0  0  0  0  0  0  0  0  0  0  0
   -5.7029    1.3581    0.8930 C   0  0  0  0  0  0  0  0  0  0  0  0
   -5.5717    0.3613   -0.0455 C   0  0  0  0  0  0  0  0  0  0  0  0
    0.2268   -2.7293    0.7542 H   0  0  0  0  0  0  0  0  0  0  0  0
    0.4460   -2.6773   -1.0297 H   0  0  0  0  0  0  0  0  0  0  0  0
    2.3827   -4.2042    0.0766 H   0  0  0  0  0  0  0  0  0  0  0  0
    4.2976   -2.4576    0.3624 H   0  0  0  0  0  0  0  0  0  0  0  0
    4.2876    1.9220    2.3173 H   0  0  0  0  0  0  0  0  0  0  0  0
    6.5931    2.7083    2.5636 H   0  0  0  0  0  0  0  0  0  0  0  0
    8.4171    2.1647    0.8990 H   0  0  0  0  0  0  0  0  0  0  0  0
    8.6682    0.6498   -1.6691 H   0  0  0  0  0  0  0  0  0  0  0  0
    4.8026   -0.6610   -2.1621 H   0  0  0  0  0  0  0  0  0  0  0  0
   -1.9332   -1.1793    0.4797 H   0  0  0  0  0  0  0  0  0  0  0  0
   -1.7062   -1.0508   -1.2944 H   0  0  0  0  0  0  0  0  0  0  0  0
   -3.3116    2.5542   -0.3819 H   0  0  0  0  0  0  0  0  0  0  0  0
   -0.7326    2.6767   -0.0216 H   0  0  0  0  0  0  0  0  0  0  0  0
   -3.9068   -1.6967   -2.0625 H   0  0  0  0  0  0  0  0  0  0  0  0
   -6.1514   -2.5787   -2.4101 H   0  0  0  0  0  0  0  0  0  0  0  0
   -8.1927   -1.6308   -1.2657 H   0  0  0  0  0  0  0  0  0  0  0  0
   -8.8422    0.4454    0.6435 H   0  0  0  0  0  0  0  0  0  0  0  0
   -7.4282    2.1152    1.8779 H   0  0  0  0  0  0  0  0  0  0  0  0
   -4.9835    2.0034    1.3767 H   0  0  0  0  0  0  0  0  0  0  0  0
  1  2  1  0
  2  3  2  0
  3  4  1  0
  4  5  1  0
  5  6  2  0
  6  7  1  0
  7  8  1  0
  8  9  1  0
  9 10  2  0
 10 11  1  0
 11 12  2  0
 12 13  1  0
 13 14  2  0
 14 15  1  0
 15 16  1  0
 16 17  2  0
  6 18  1  0
 18 19  1  0
 19 20  1  0
 20 21  2  0
 21 22  1  0
 20 23  1  0
 23 24  2  0
 24 25  1  0
 25 26  2  0
 26 27  1  0
 27 28  2  0
 28 29  1  0
 29 30  1  0
 30 31  2  0
  5  1  1  0
 17  9  1  0
 22 18  2  0
 31 23  1  0
  8  4  2  0
 17 13  1  0
 31 27  1  0
  1 32  1  0
  1 33  1  0
  2 34  1  0
  3 35  1  0
 10 36  1  0
 11 37  1  0
 12 38  1  0
 14 39  1  0
 16 40  1  0
 19 41  1  0
 19 42  1  0
 21 43  1  0
 22 44  1  0
 24 45  1  0
 25 46  1  0
 26 47  1  0
 28 48  1  0
 29 49  1  0
 30 50  1  0
M  END
