
     RDKit          3D

 47 53  0  0  0  0  0  0  0  0999 V2000
   -0.2693   -3.0001    0.2330 C   0  0  0  0  0  0  0  0  0  0  0  0
   -1.5794   -3.7199    0.5813 C   0  0  0  0  0  0  0  0  0  0  0  0
   -2.5622   -2.8354    0.8693 C   0  0  0  0  0  0  0  0  0  0  0  0
   -2.0521   -1.5130    0.7589 C   0  0  0  0  0  0  0  0  0  0  0  0
   -0.6887   -1.5767    0.3819 C   0  0  0  0  0  0  0  0  0  0  0  0
   -0.1290   -0.3382    0.2167 C   0  0  0  0  0  0  0  0  0  0  0  0
   -1.2870    0.8842    0.5921 S   0  0  0  0  0  0  0  0  0  0  0  0
   -2.5569   -0.2508    0.8937 C   0  0  0  0  0  0  0  0  0  0  0  0
   -3.8833    0.1944    1.2675 C   0  0  0  0  0  0  0  0  0  0  0  0
   -4.5302   -0.1566    2.4811 C   0  0  0  0  0  0  0  0  0  0  0  0
   -5.8626    0.2657    2.8428 C   0  0  0  0  0  0  0  0  0  0  0  0
   -6.6930    1.0679    2.0254 C   0  0  0  0  0  0  0  0  0  0  0  0
   -6.0396    1.3898    0.8430 C   0  0  0  0  0  0  0  0  0  0  0  0
   -6.5318    2.1420   -0.1923 C   0  0  0  0  0  0  0  0  0  0  0  0
   -5.5848    2.2350   -1.1809 O   0  0  0  0  0  0  0  0  0  0  0  0
   -4.4858    1.5280   -0.7682 C   0  0  0  0  0  0  0  0  0  0  0  0
   -4.7181    0.9869    0.4754 C   0  0  0  0  0  0  0  0  0  0  0  0
    1.2034   -0.0118   -0.1986 C   0  0  0  0  0  0  0  0  0  0  0  0
    2.5541   -0.4329    0.7739 S   0  0  0  0  0  0  0  0  0  0  0  0
    3.6919    0.2379   -0.3334 C   0  0  0  0  0  0  0  0  0  0  0  0
    5.1227    0.1863   -0.0233 C   0  0  0  0  0  0  0  0  0  0  0  0
    6.0746   -0.1375   -0.9921 C   0  0  0  0  0  0  0  0  0  0  0  0
    7.4232   -0.1527   -0.6365 C   0  0  0  0  0  0  0  0  0  0  0  0
    7.7841    0.1735    0.6695 C   0  0  0  0  0  0  0  0  0  0  0  0
    6.7747    0.4862    1.5707 C   0  0  0  0  0  0  0  0  0  0  0  0
    5.4584    0.4873    1.2579 N   0  0  0  0  0  0  0  0  0  0  0  0
    3.0434    0.7403   -1.4360 C   0  0  0  0  0  0  0  0  0  0  0  0
    3.6886    1.3011   -2.5032 N   0  0  0  0  0  0  0  0  0  0  0  0
    2.8033    1.7411   -3.4408 C   0  0  0  0  0  0  0  0  0  0  0  0
    1.4117    1.6368   -3.3488 C   0  0  0  0  0  0  0  0  0  0  0  0
    0.7408    1.0741   -2.3121 N   0  0  0  0  0  0  0  0  0  0  0  0
    1.6036    0.6258   -1.3468 C   0  0  0  0  0  0  0  0  0  0  0  0
    0.0350   -3.2270   -0.7947 H   0  0  0  0  0  0  0  0  0  0  0  0
    0.5200   -3.2718    0.9400 H   0  0  0  0  0  0  0  0  0  0  0  0
   -1.6916   -4.8016    0.5846 H   0  0  0  0  0  0  0  0  0  0  0  0
   -3.5809   -3.0880    1.1360 H   0  0  0  0  0  0  0  0  0  0  0  0
   -3.9881   -0.7794    3.1958 H   0  0  0  0  0  0  0  0  0  0  0  0
   -6.2528   -0.0620    3.8091 H   0  0  0  0  0  0  0  0  0  0  0  0
   -7.6922    1.3764    2.3052 H   0  0  0  0  0  0  0  0  0  0  0  0
   -7.4613    2.6576   -0.3888 H   0  0  0  0  0  0  0  0  0  0  0  0
   -3.6569    1.5146   -1.4663 H   0  0  0  0  0  0  0  0  0  0  0  0
    5.7882   -0.3577   -2.0120 H   0  0  0  0  0  0  0  0  0  0  0  0
    8.1882   -0.3958   -1.3842 H   0  0  0  0  0  0  0  0  0  0  0  0
    8.8257    0.1873    0.9708 H   0  0  0  0  0  0  0  0  0  0  0  0
    7.0059    0.7646    2.5928 H   0  0  0  0  0  0  0  0  0  0  0  0
    3.2553    2.1983   -4.3161 H   0  0  0  0  0  0  0  0  0  0  0  0
    0.7806    2.0262   -4.1388 H   0  0  0  0  0  0  0  0  0  0  0  0
  1  2  1  0
  2  3  2  0
  3  4  1  0
  4  5  1  0
  5  6  2  0
  6  7  1  0
  7  8  1  0
  8  9  1  0
  9 10  2  0
 10 11  1  0
 11 12  2  0
 12 13  1  0
 13 14  2  0
 14 15  1  0
 15 16  1  0
 16 17  2  0
  6 18  1  0
 18 19  1  0
 19 20  1  0
 20 21  1  0
 21 22  2  0
 22 23  1  0
 23 24  2  0
 24 25  1  0
 25 26  2  0
 20 27  2  0
 27 28  1  0
 28 29  2  0
 29 30  1  0
 30 31  2  0
 31 32  1  0
  5  1  1  0
 17  9  1  0
 32 18  2  0
  8  4  2  0
 17 13  1  0
 26 21  1  0
 32 27  1  0
  1 33  1  0
  1 34  1  0
  2 35  1  0
  3 36  1  0
 10 37  1  0
 11 38  1  0
 12 39  1  0
 14 40  1  0
 16 41  1  0
 22 42  1  0
 23 43  1  0
 24 44  1  0
 25 45  1  0
 29 46  1  0
 30 47  1  0
M  END
