
     RDKit          3D

 40 45  0  0  0  0  0  0  0  0999 V2000
    2.2121   -2.9902    0.7525 C   0  0  0  0  0  0  0  0  0  0  0  0
    3.7343   -3.0768    0.8737 C   0  0  0  0  0  0  0  0  0  0  0  0
    4.3089   -1.8654    0.7031 C   0  0  0  0  0  0  0  0  0  0  0  0
    3.3014   -0.8933    0.4638 C   0  0  0  0  0  0  0  0  0  0  0  0
    2.0347   -1.5320    0.4865 C   0  0  0  0  0  0  0  0  0  0  0  0
    0.9947   -0.6662    0.2634 C   0  0  0  0  0  0  0  0  0  0  0  0
    1.6215    0.9341    0.0289 S   0  0  0  0  0  0  0  0  0  0  0  0
    3.2709    0.4523    0.2277 C   0  0  0  0  0  0  0  0  0  0  0  0
    4.3677    1.3791    0.1429 C   0  0  0  0  0  0  0  0  0  0  0  0
    4.3597    2.7470   -0.0957 C   0  0  0  0  0  0  0  0  0  0  0  0
    5.7037    3.1934   -0.0796 C   0  0  0  0  0  0  0  0  0  0  0  0
    6.4658    2.0803    0.1673 C   0  0  0  0  0  0  0  0  0  0  0  0
    5.6768    0.9872    0.3025 O   0  0  0  0  0  0  0  0  0  0  0  0
   -0.4141   -0.9450    0.2136 C   0  0  0  0  0  0  0  0  0  0  0  0
   -1.1004   -2.1291    0.3712 C   0  0  0  0  0  0  0  0  0  0  0  0
   -2.4822   -1.8491    0.2262 C   0  0  0  0  0  0  0  0  0  0  0  0
   -2.6431   -0.4937   -0.0203 C   0  0  0  0  0  0  0  0  0  0  0  0
   -1.3618    0.0249   -0.0208 N   0  0  0  0  0  0  0  0  0  0  0  0
   -3.8440    0.3253   -0.2463 C   0  0  0  0  0  0  0  0  0  0  0  0
   -3.7922    1.7231   -0.4861 C   0  0  0  0  0  0  0  0  0  0  0  0
   -4.9297    2.5378   -0.7070 C   0  0  0  0  0  0  0  0  0  0  0  0
   -6.2377    2.0381   -0.7108 C   0  0  0  0  0  0  0  0  0  0  0  0
   -6.3734    0.6506   -0.4786 C   0  0  0  0  0  0  0  0  0  0  0  0
   -7.5408   -0.0104   -0.4446 N   0  0  0  0  0  0  0  0  0  0  0  0
   -7.1718   -1.5967   -0.1428 S   0  0  0  0  0  0  0  0  0  0  0  0
   -5.5226   -1.5180   -0.0419 N   0  0  0  0  0  0  0  0  0  0  0  0
   -5.1627   -0.2357   -0.2402 C   0  0  0  0  0  0  0  0  0  0  0  0
    1.7330   -3.2954    1.6870 H   0  0  0  0  0  0  0  0  0  0  0  0
    1.8563   -3.6027   -0.0806 H   0  0  0  0  0  0  0  0  0  0  0  0
    4.2661   -3.9955    1.0706 H   0  0  0  0  0  0  0  0  0  0  0  0
    5.3691   -1.6564    0.7407 H   0  0  0  0  0  0  0  0  0  0  0  0
    3.4826    3.3564   -0.2629 H   0  0  0  0  0  0  0  0  0  0  0  0
    6.0684    4.1996   -0.2292 H   0  0  0  0  0  0  0  0  0  0  0  0
    7.5276    1.9060    0.2717 H   0  0  0  0  0  0  0  0  0  0  0  0
   -0.6710   -3.1011    0.5699 H   0  0  0  0  0  0  0  0  0  0  0  0
   -3.2746   -2.5829    0.2982 H   0  0  0  0  0  0  0  0  0  0  0  0
   -1.1229    0.9930   -0.1721 H   0  0  0  0  0  0  0  0  0  0  0  0
   -2.8300    2.2324   -0.5081 H   0  0  0  0  0  0  0  0  0  0  0  0
   -4.7801    3.6038   -0.8823 H   0  0  0  0  0  0  0  0  0  0  0  0
   -7.1003    2.6711   -0.8810 H   0  0  0  0  0  0  0  0  0  0  0  0
  1  2  1  0
  2  3  2  0
  3  4  1  0
  4  5  1  0
  5  6  2  0
  6  7  1  0
  7  8  1  0
  8  9  1  0
  9 10  2  0
 10 11  1  0
 11 12  2  0
 12 13  1  0
  6 14  1  0
 14 15  2  0
 15 16  1  0
 16 17  2  0
 17 18  1  0
 17 19  1  0
 19 20  2  0
 20 21  1  0
 21 22  2  0
 22 23  1  0
 23 24  2  0
 24 25  1  0
 25 26  1  0
 26 27  2  0
  5  1  1  0
 13  9  1  0
 18 14  1  0
 27 19  1  0
  8  4  2  0
 27 23  1  0
  1 28  1  0
  1 29  1  0
  2 30  1  0
  3 31  1  0
 10 32  1  0
 11 33  1  0
 12 34  1  0
 15 35  1  0
 16 36  1  0
 18 37  1  0
 20 38  1  0
 21 39  1  0
 22 40  1  0
M  END
