
     RDKit          3D

 40 45  0  0  0  0  0  0  0  0999 V2000
    1.4363    0.5883    1.9976 C   0  0  0  0  0  0  0  0  0  0  0  0
    2.7698    0.9113    2.6735 C   0  0  0  0  0  0  0  0  0  0  0  0
    3.8117    0.6931    1.8393 C   0  0  0  0  0  0  0  0  0  0  0  0
    3.3299    0.2250    0.5868 C   0  0  0  0  0  0  0  0  0  0  0  0
    1.9140    0.1606    0.6510 C   0  0  0  0  0  0  0  0  0  0  0  0
    1.3375   -0.2637   -0.5173 C   0  0  0  0  0  0  0  0  0  0  0  0
    2.5660   -0.5751   -1.6873 S   0  0  0  0  0  0  0  0  0  0  0  0
    3.8640   -0.1523   -0.6152 C   0  0  0  0  0  0  0  0  0  0  0  0
    5.2307   -0.2337   -1.0549 C   0  0  0  0  0  0  0  0  0  0  0  0
    6.4012   -0.2371   -0.3100 C   0  0  0  0  0  0  0  0  0  0  0  0
    7.4866   -0.3378   -1.2148 C   0  0  0  0  0  0  0  0  0  0  0  0
    6.9281   -0.3957   -2.4657 C   0  0  0  0  0  0  0  0  0  0  0  0
    5.5772   -0.3383   -2.3829 O   0  0  0  0  0  0  0  0  0  0  0  0
   -0.0636   -0.4345   -0.7818 C   0  0  0  0  0  0  0  0  0  0  0  0
   -0.7095   -0.8674   -1.9253 C   0  0  0  0  0  0  0  0  0  0  0  0
   -2.1001   -0.8565   -1.6519 C   0  0  0  0  0  0  0  0  0  0  0  0
   -2.2609   -0.4103   -0.3524 C   0  0  0  0  0  0  0  0  0  0  0  0
   -1.0156   -0.1650    0.1663 O   0  0  0  0  0  0  0  0  0  0  0  0
   -3.4630   -0.2168    0.4128 C   0  0  0  0  0  0  0  0  0  0  0  0
   -3.4100   -0.2534    2.1483 S   0  0  0  0  0  0  0  0  0  0  0  0
   -5.1053    0.0178    2.3107 C   0  0  0  0  0  0  0  0  0  0  0  0
   -5.6909    0.1488    1.0819 C   0  0  0  0  0  0  0  0  0  0  0  0
   -7.0556    0.3987    0.7305 C   0  0  0  0  0  0  0  0  0  0  0  0
   -7.2915    0.4925   -0.5959 C   0  0  0  0  0  0  0  0  0  0  0  0
   -5.6856    0.2589   -1.6001 Si  0  0  0  0  0  4  0  0  0  0  0  0
   -4.7511    0.0165    0.0199 C   0  0  0  0  0  0  0  0  0  0  0  0
    0.9195   -0.2192    2.5236 H   0  0  0  0  0  0  0  0  0  0  0  0
    0.8036    1.4786    1.9426 H   0  0  0  0  0  0  0  0  0  0  0  0
    2.8474    1.2750    3.6873 H   0  0  0  0  0  0  0  0  0  0  0  0
    4.8486    0.8633    2.0876 H   0  0  0  0  0  0  0  0  0  0  0  0
    6.4706   -0.1865    0.7662 H   0  0  0  0  0  0  0  0  0  0  0  0
    8.5414   -0.3697   -0.9820 H   0  0  0  0  0  0  0  0  0  0  0  0
    7.3313   -0.4779   -3.4653 H   0  0  0  0  0  0  0  0  0  0  0  0
   -0.2348   -1.1660   -2.8499 H   0  0  0  0  0  0  0  0  0  0  0  0
   -2.8834   -1.1606   -2.3298 H   0  0  0  0  0  0  0  0  0  0  0  0
   -5.5571    0.0716    3.2911 H   0  0  0  0  0  0  0  0  0  0  0  0
   -7.8318    0.5042    1.4799 H   0  0  0  0  0  0  0  0  0  0  0  0
   -8.2339    0.6761   -1.0862 H   0  0  0  0  0  0  0  0  0  0  0  0
   -5.7454   -0.9637   -2.4399 H   0  0  0  0  0  0  0  0  0  0  0  0
   -5.3263    1.5007   -2.3277 H   0  0  0  0  0  0  0  0  0  0  0  0
  1  2  1  0
  2  3  2  0
  3  4  1  0
  4  5  1  0
  5  6  2  0
  6  7  1  0
  7  8  1  0
  8  9  1  0
  9 10  2  0
 10 11  1  0
 11 12  2  0
 12 13  1  0
  6 14  1  0
 14 15  2  0
 15 16  1  0
 16 17  2  0
 17 18  1  0
 17 19  1  0
 19 20  1  0
 20 21  1  0
 21 22  2  0
 22 23  1  0
 23 24  2  0
 24 25  1  0
 25 26  1  0
  5  1  1  0
 13  9  1  0
 18 14  1  0
 26 19  2  0
  8  4  2  0
 26 22  1  0
  1 27  1  0
  1 28  1  0
  2 29  1  0
  3 30  1  0
 10 31  1  0
 11 32  1  0
 12 33  1  0
 15 34  1  0
 16 35  1  0
 21 36  1  0
 23 37  1  0
 24 38  1  0
 25 39  1  0
 25 40  1  0
M  END
