
     RDKit          3D

 41 46  0  0  0  0  0  0  0  0999 V2000
    1.6484   -0.9467    2.5025 C   0  0  0  0  0  0  0  0  0  0  0  0
    3.1042   -1.1269    2.9302 C   0  0  0  0  0  0  0  0  0  0  0  0
    3.9501   -0.9400    1.8917 C   0  0  0  0  0  0  0  0  0  0  0  0
    3.2071   -0.6342    0.7180 C   0  0  0  0  0  0  0  0  0  0  0  0
    1.8294   -0.6262    1.0574 C   0  0  0  0  0  0  0  0  0  0  0  0
    1.0081   -0.3155    0.0038 C   0  0  0  0  0  0  0  0  0  0  0  0
    1.9723   -0.0351   -1.4077 S   0  0  0  0  0  0  0  0  0  0  0  0
    3.4779   -0.3422   -0.5928 C   0  0  0  0  0  0  0  0  0  0  0  0
    4.7235   -0.2618   -1.3148 C   0  0  0  0  0  0  0  0  0  0  0  0
    4.8650    0.4685   -2.4052 N   0  0  0  0  0  0  0  0  0  0  0  0
    6.1479    0.3492   -2.8992 C   0  0  0  0  0  0  0  0  0  0  0  0
    6.9831   -0.4788   -2.1847 C   0  0  0  0  0  0  0  0  0  0  0  0
    6.1356   -1.1341   -0.8498 S   0  0  0  0  0  0  0  0  0  0  0  0
   -0.4143   -0.2052   -0.0481 C   0  0  0  0  0  0  0  0  0  0  0  0
   -1.1234   -1.3568   -0.0427 C   0  0  0  0  0  0  0  0  0  0  0  0
   -2.5821   -1.3941   -0.0950 C   0  0  0  0  0  0  0  0  0  0  0  0
   -3.3589   -0.2852   -0.1567 C   0  0  0  0  0  0  0  0  0  0  0  0
   -4.7751   -0.5108   -0.2423 C   0  0  0  0  0  0  0  0  0  0  0  0
   -5.4892   -1.2948    0.5502 N   0  0  0  0  0  0  0  0  0  0  0  0
   -6.8130   -1.3099    0.1617 C   0  0  0  0  0  0  0  0  0  0  0  0
   -7.1141   -0.5581   -0.9494 C   0  0  0  0  0  0  0  0  0  0  0  0
   -5.6960    0.1947   -1.5378 S   0  0  0  0  0  0  0  0  0  0  0  0
   -2.6647    1.0121   -0.1194 C   0  0  0  0  0  0  0  0  0  0  0  0
   -3.2423    2.2318   -0.0852 C   0  0  0  0  0  0  0  0  0  0  0  0
   -1.9666    3.5975   -0.0344 Si  0  0  0  0  0  4  0  0  0  0  0  0
   -0.6446    2.2878   -0.0299 C   0  0  0  0  0  0  0  0  0  0  0  0
   -1.1753    1.0481   -0.0747 C   0  0  0  0  0  0  0  0  0  0  0  0
    1.1816   -0.1214    3.0472 H   0  0  0  0  0  0  0  0  0  0  0  0
    1.0828   -1.8713    2.6475 H   0  0  0  0  0  0  0  0  0  0  0  0
    3.4019   -1.3659    3.9404 H   0  0  0  0  0  0  0  0  0  0  0  0
    5.0269   -1.0037    1.9542 H   0  0  0  0  0  0  0  0  0  0  0  0
    6.4224    0.8934   -3.7946 H   0  0  0  0  0  0  0  0  0  0  0  0
    8.0168   -0.7243   -2.3795 H   0  0  0  0  0  0  0  0  0  0  0  0
   -0.6254   -2.3235   -0.0172 H   0  0  0  0  0  0  0  0  0  0  0  0
   -3.0284   -2.3871   -0.1031 H   0  0  0  0  0  0  0  0  0  0  0  0
   -7.5238   -1.8978    0.7294 H   0  0  0  0  0  0  0  0  0  0  0  0
   -8.0703   -0.4253   -1.4339 H   0  0  0  0  0  0  0  0  0  0  0  0
   -4.2933    2.4700   -0.0766 H   0  0  0  0  0  0  0  0  0  0  0  0
   -2.0168    4.3624    1.2347 H   0  0  0  0  0  0  0  0  0  0  0  0
   -1.9683    4.4119   -1.2731 H   0  0  0  0  0  0  0  0  0  0  0  0
    0.4009    2.5496    0.0177 H   0  0  0  0  0  0  0  0  0  0  0  0
  1  2  1  0
  2  3  2  0
  3  4  1  0
  4  5  1  0
  5  6  2  0
  6  7  1  0
  7  8  1  0
  8  9  1  0
  9 10  2  0
 10 11  1  0
 11 12  2  0
 12 13  1  0
  6 14  1  0
 14 15  2  0
 15 16  1  0
 16 17  2  0
 17 18  1  0
 18 19  2  0
 19 20  1  0
 20 21  2  0
 21 22  1  0
 17 23  1  0
 23 24  2  0
 24 25  1  0
 25 26  1  0
 26 27  2  0
  5  1  1  0
 13  9  1  0
 27 14  1  0
  8  4  2  0
 22 18  1  0
 27 23  1  0
  1 28  1  0
  1 29  1  0
  2 30  1  0
  3 31  1  0
 11 32  1  0
 12 33  1  0
 15 34  1  0
 16 35  1  0
 20 36  1  0
 21 37  1  0
 24 38  1  0
 25 39  1  0
 25 40  1  0
 26 41  1  0
M  END
