
     RDKit          3D

 40 45  0  0  0  0  0  0  0  0999 V2000
   -4.0941   -1.6999    0.5287 C   0  0  0  0  0  0  0  0  0  0  0  0
   -3.0875   -2.7554    0.9921 C   0  0  0  0  0  0  0  0  0  0  0  0
   -1.8176   -2.3017    0.8913 C   0  0  0  0  0  0  0  0  0  0  0  0
   -1.8268   -0.9753    0.3828 C   0  0  0  0  0  0  0  0  0  0  0  0
   -3.1709   -0.5911    0.1511 C   0  0  0  0  0  0  0  0  0  0  0  0
   -3.2890    0.6756   -0.3577 C   0  0  0  0  0  0  0  0  0  0  0  0
   -1.7191    1.3708   -0.5452 S   0  0  0  0  0  0  0  0  0  0  0  0
   -0.8926   -0.0296    0.0606 C   0  0  0  0  0  0  0  0  0  0  0  0
    0.5345   -0.0755    0.1667 C   0  0  0  0  0  0  0  0  0  0  0  0
    1.6322    0.5254   -1.0298 S   0  0  0  0  0  0  0  0  0  0  0  0
    3.0759    0.0655   -0.1384 C   0  0  0  0  0  0  0  0  0  0  0  0
    4.3678    0.3043   -0.6614 C   0  0  0  0  0  0  0  0  0  0  0  0
    5.7701   -0.9526   -0.5845 Si  0  0  0  0  0  4  0  0  0  0  0  0
    6.8419    0.3061   -1.4817 C   0  0  0  0  0  0  0  0  0  0  0  0
    6.1517    1.4312   -1.7427 C   0  0  0  0  0  0  0  0  0  0  0  0
    4.7683    1.4309   -1.2870 C   0  0  0  0  0  0  0  0  0  0  0  0
    2.6378   -0.5072    1.0126 C   0  0  0  0  0  0  0  0  0  0  0  0
    3.1464   -1.0730    2.1981 C   0  0  0  0  0  0  0  0  0  0  0  0
    2.0197   -1.4332    2.9455 C   0  0  0  0  0  0  0  0  0  0  0  0
    0.8182   -1.1401    2.3328 O   0  0  0  0  0  0  0  0  0  0  0  0
    1.2735   -0.5822    1.1741 C   0  0  0  0  0  0  0  0  0  0  0  0
   -4.5002    1.3670   -0.7036 C   0  0  0  0  0  0  0  0  0  0  0  0
   -4.6834    2.6422   -1.2190 C   0  0  0  0  0  0  0  0  0  0  0  0
   -6.0760    2.8415   -1.3812 C   0  0  0  0  0  0  0  0  0  0  0  0
   -6.6736    1.6816   -0.9582 C   0  0  0  0  0  0  0  0  0  0  0  0
   -5.7392    0.7891   -0.5494 O   0  0  0  0  0  0  0  0  0  0  0  0
   -4.6687   -2.0623   -0.3283 H   0  0  0  0  0  0  0  0  0  0  0  0
   -4.7615   -1.4148    1.3466 H   0  0  0  0  0  0  0  0  0  0  0  0
   -3.3729   -3.7324    1.3523 H   0  0  0  0  0  0  0  0  0  0  0  0
   -0.9283   -2.8558    1.1569 H   0  0  0  0  0  0  0  0  0  0  0  0
    6.2480   -1.2027    0.8000 H   0  0  0  0  0  0  0  0  0  0  0  0
    5.5243   -2.1614   -1.4100 H   0  0  0  0  0  0  0  0  0  0  0  0
    7.8704    0.1004   -1.7326 H   0  0  0  0  0  0  0  0  0  0  0  0
    6.5680    2.2909   -2.2537 H   0  0  0  0  0  0  0  0  0  0  0  0
    4.1431    2.3002   -1.4543 H   0  0  0  0  0  0  0  0  0  0  0  0
    4.1739   -1.2026    2.5058 H   0  0  0  0  0  0  0  0  0  0  0  0
    1.9135   -1.8934    3.9194 H   0  0  0  0  0  0  0  0  0  0  0  0
   -3.8997    3.3500   -1.4519 H   0  0  0  0  0  0  0  0  0  0  0  0
   -6.5782    3.7208   -1.7589 H   0  0  0  0  0  0  0  0  0  0  0  0
   -7.6998    1.3491   -0.8880 H   0  0  0  0  0  0  0  0  0  0  0  0
  1  2  1  0
  2  3  2  0
  3  4  1  0
  4  5  1  0
  5  6  2  0
  6  7  1  0
  7  8  1  0
  8  9  1  0
  9 10  1  0
 10 11  1  0
 11 12  1  0
 12 13  1  0
 13 14  1  0
 14 15  2  0
 15 16  1  0
 11 17  2  0
 17 18  1  0
 18 19  2  0
 19 20  1  0
 20 21  1  0
  6 22  1  0
 22 23  2  0
 23 24  1  0
 24 25  2  0
 25 26  1  0
  5  1  1  0
 21  9  2  0
 26 22  1  0
  8  4  2  0
 16 12  2  0
 21 17  1  0
  1 27  1  0
  1 28  1  0
  2 29  1  0
  3 30  1  0
 13 31  1  0
 13 32  1  0
 14 33  1  0
 15 34  1  0
 16 35  1  0
 18 36  1  0
 19 37  1  0
 23 38  1  0
 24 39  1  0
 25 40  1  0
M  END
