
     RDKit          3D

 46 53  0  0  0  0  0  0  0  0999 V2000
    3.2072   -1.7462    2.7263 C   0  0  0  0  0  0  0  0  0  0  0  0
    1.9459   -2.3905    3.3016 C   0  0  0  0  0  0  0  0  0  0  0  0
    0.8431   -1.9993    2.6257 C   0  0  0  0  0  0  0  0  0  0  0  0
    1.2161   -1.1083    1.5837 C   0  0  0  0  0  0  0  0  0  0  0  0
    2.6261   -0.9404    1.6102 C   0  0  0  0  0  0  0  0  0  0  0  0
    3.0909   -0.1224    0.6091 C   0  0  0  0  0  0  0  0  0  0  0  0
    1.7500    0.4376   -0.3348 S   0  0  0  0  0  0  0  0  0  0  0  0
    0.5702   -0.4235    0.5924 C   0  0  0  0  0  0  0  0  0  0  0  0
   -0.8280   -0.3455    0.2768 C   0  0  0  0  0  0  0  0  0  0  0  0
   -2.0598   -0.2188    1.5031 S   0  0  0  0  0  0  0  0  0  0  0  0
   -3.3629   -0.1483    0.3651 C   0  0  0  0  0  0  0  0  0  0  0  0
   -4.7351    0.0016    0.7286 C   0  0  0  0  0  0  0  0  0  0  0  0
   -5.5181   -1.0369    1.8917 S   0  0  0  0  0  0  0  0  0  0  0  0
   -7.0552   -0.2486    1.7361 C   0  0  0  0  0  0  0  0  0  0  0  0
   -6.9119    0.7439    0.8403 C   0  0  0  0  0  0  0  0  0  0  0  0
   -7.8776    1.6112    0.4335 O   0  0  0  0  0  0  0  0  0  0  0  0
   -7.1413    2.3809   -0.4491 C   0  0  0  0  0  0  0  0  0  0  0  0
   -5.8014    1.9905   -0.5718 C   0  0  0  0  0  0  0  0  0  0  0  0
   -5.6612    0.8876    0.2920 C   0  0  0  0  0  0  0  0  0  0  0  0
   -2.8371   -0.2338   -0.8773 C   0  0  0  0  0  0  0  0  0  0  0  0
   -3.5042   -0.2469   -2.0713 N   0  0  0  0  0  0  0  0  0  0  0  0
   -2.4509   -0.3531   -2.9749 C   0  0  0  0  0  0  0  0  0  0  0  0
   -1.2056   -0.4107   -2.3155 C   0  0  0  0  0  0  0  0  0  0  0  0
   -1.4621   -0.3336   -0.9197 C   0  0  0  0  0  0  0  0  0  0  0  0
    4.4413    0.2735    0.3060 C   0  0  0  0  0  0  0  0  0  0  0  0
    5.6824    0.3864    1.5322 S   0  0  0  0  0  0  0  0  0  0  0  0
    6.9115    0.9000    0.4241 C   0  0  0  0  0  0  0  0  0  0  0  0
    6.3572    0.9645   -0.8016 C   0  0  0  0  0  0  0  0  0  0  0  0
    6.9834    1.3232   -1.9594 N   0  0  0  0  0  0  0  0  0  0  0  0
    5.9440    1.2013   -2.8777 C   0  0  0  0  0  0  0  0  0  0  0  0
    4.7489    0.7820   -2.2551 C   0  0  0  0  0  0  0  0  0  0  0  0
    5.0226    0.6275   -0.8668 C   0  0  0  0  0  0  0  0  0  0  0  0
    3.6880   -1.1177    3.4807 H   0  0  0  0  0  0  0  0  0  0  0  0
    3.8996   -2.5094    2.3604 H   0  0  0  0  0  0  0  0  0  0  0  0
    1.9534   -3.0702    4.1405 H   0  0  0  0  0  0  0  0  0  0  0  0
   -0.1669   -2.3214    2.8361 H   0  0  0  0  0  0  0  0  0  0  0  0
   -7.9374   -0.5393    2.2871 H   0  0  0  0  0  0  0  0  0  0  0  0
   -7.7090    3.1778   -0.9123 H   0  0  0  0  0  0  0  0  0  0  0  0
   -5.0552    2.4648   -1.1938 H   0  0  0  0  0  0  0  0  0  0  0  0
   -4.5046   -0.2036   -2.2256 H   0  0  0  0  0  0  0  0  0  0  0  0
   -2.6701   -0.3891   -4.0346 H   0  0  0  0  0  0  0  0  0  0  0  0
   -0.2447   -0.5059   -2.8043 H   0  0  0  0  0  0  0  0  0  0  0  0
    7.9245    1.1125    0.7349 H   0  0  0  0  0  0  0  0  0  0  0  0
    7.9491    1.5989   -2.0880 H   0  0  0  0  0  0  0  0  0  0  0  0
    6.1353    1.4234   -3.9198 H   0  0  0  0  0  0  0  0  0  0  0  0
    3.8096    0.6136   -2.7649 H   0  0  0  0  0  0  0  0  0  0  0  0
  1  2  1  0
  2  3  2  0
  3  4  1  0
  4  5  1  0
  5  6  2  0
  6  7  1  0
  7  8  1  0
  8  9  1  0
  9 10  1  0
 10 11  1  0
 11 12  1  0
 12 13  1  0
 13 14  1  0
 14 15  2  0
 15 16  1  0
 16 17  1  0
 17 18  2  0
 18 19  1  0
 11 20  2  0
 20 21  1  0
 21 22  1  0
 22 23  2  0
 23 24  1  0
  6 25  1  0
 25 26  1  0
 26 27  1  0
 27 28  2  0
 28 29  1  0
 29 30  1  0
 30 31  2  0
 31 32  1  0
  5  1  1  0
 24  9  2  0
 32 25  2  0
  8  4  2  0
 19 12  2  0
 24 20  1  0
 32 28  1  0
 19 15  1  0
  1 33  1  0
  1 34  1  0
  2 35  1  0
  3 36  1  0
 14 37  1  0
 17 38  1  0
 18 39  1  0
 21 40  1  0
 22 41  1  0
 23 42  1  0
 27 43  1  0
 29 44  1  0
 30 45  1  0
 31 46  1  0
M  END
