
     RDKit          3D

 46 53  0  0  0  0  0  0  0  0999 V2000
   -1.9154    3.4992   -0.1394 C   0  0  0  0  0  0  0  0  0  0  0  0
   -0.4632    3.8812    0.1547 C   0  0  0  0  0  0  0  0  0  0  0  0
    0.3370    2.7917    0.1783 C   0  0  0  0  0  0  0  0  0  0  0  0
   -0.4384    1.6292   -0.0774 C   0  0  0  0  0  0  0  0  0  0  0  0
   -1.7893    2.0177   -0.2660 C   0  0  0  0  0  0  0  0  0  0  0  0
   -2.6264    0.9538   -0.4851 C   0  0  0  0  0  0  0  0  0  0  0  0
   -1.7100   -0.5123   -0.4874 S   0  0  0  0  0  0  0  0  0  0  0  0
   -0.2074    0.2837   -0.1587 C   0  0  0  0  0  0  0  0  0  0  0  0
    1.0183   -0.4432   -0.0362 C   0  0  0  0  0  0  0  0  0  0  0  0
    2.5095    0.0282   -0.7806 S   0  0  0  0  0  0  0  0  0  0  0  0
    3.3989   -1.3373   -0.1610 C   0  0  0  0  0  0  0  0  0  0  0  0
    4.7870   -1.5486   -0.4555 C   0  0  0  0  0  0  0  0  0  0  0  0
    5.4046   -3.1213   -0.8314 S   0  0  0  0  0  0  0  0  0  0  0  0
    7.0128   -2.5559   -1.0620 C   0  0  0  0  0  0  0  0  0  0  0  0
    7.0768   -1.2097   -0.8497 C   0  0  0  0  0  0  0  0  0  0  0  0
    8.4732   -0.0751   -0.9305 S   0  0  0  0  0  0  0  0  0  0  0  0
    7.3034    1.1541   -0.4769 C   0  0  0  0  0  0  0  0  0  0  0  0
    5.9864    0.7180   -0.2904 C   0  0  0  0  0  0  0  0  0  0  0  0
    5.8292   -0.6789   -0.5164 C   0  0  0  0  0  0  0  0  0  0  0  0
    2.5309   -2.0772    0.5707 C   0  0  0  0  0  0  0  0  0  0  0  0
    2.4878   -3.2465    1.3542 C   0  0  0  0  0  0  0  0  0  0  0  0
    1.1677   -3.3333    1.8100 C   0  0  0  0  0  0  0  0  0  0  0  0
    0.3531   -2.3028    1.3837 O   0  0  0  0  0  0  0  0  0  0  0  0
    1.2458   -1.5900    0.6381 C   0  0  0  0  0  0  0  0  0  0  0  0
   -4.0472    0.9594   -0.7013 C   0  0  0  0  0  0  0  0  0  0  0  0
   -4.7774    2.0504   -1.8348 S   0  0  0  0  0  0  0  0  0  0  0  0
   -6.3726    1.4696   -1.5244 C   0  0  0  0  0  0  0  0  0  0  0  0
   -6.3489    0.4793   -0.5813 C   0  0  0  0  0  0  0  0  0  0  0  0
   -7.4173   -0.2767   -0.0036 C   0  0  0  0  0  0  0  0  0  0  0  0
   -7.0358   -1.1786    0.9265 C   0  0  0  0  0  0  0  0  0  0  0  0
   -5.1335   -1.1585    1.1762 Si  0  0  0  0  0  4  0  0  0  0  0  0
   -5.0292    0.1995   -0.1310 C   0  0  0  0  0  0  0  0  0  0  0  0
   -2.2513    3.9648   -1.0697 H   0  0  0  0  0  0  0  0  0  0  0  0
   -2.5677    3.7832    0.6911 H   0  0  0  0  0  0  0  0  0  0  0  0
   -0.1378    4.8974    0.3205 H   0  0  0  0  0  0  0  0  0  0  0  0
    1.4004    2.7994    0.3702 H   0  0  0  0  0  0  0  0  0  0  0  0
    7.8271   -3.2135   -1.3336 H   0  0  0  0  0  0  0  0  0  0  0  0
    7.6703    2.1657   -0.3674 H   0  0  0  0  0  0  0  0  0  0  0  0
    5.1940    1.3973   -0.0016 H   0  0  0  0  0  0  0  0  0  0  0  0
    3.2826   -3.9435    1.5780 H   0  0  0  0  0  0  0  0  0  0  0  0
    0.6648   -4.0569    2.4385 H   0  0  0  0  0  0  0  0  0  0  0  0
   -7.2185    1.8933   -2.0470 H   0  0  0  0  0  0  0  0  0  0  0  0
   -8.4504   -0.1279   -0.2959 H   0  0  0  0  0  0  0  0  0  0  0  0
   -7.6589   -1.8535    1.4904 H   0  0  0  0  0  0  0  0  0  0  0  0
   -4.5593   -2.4644    0.7674 H   0  0  0  0  0  0  0  0  0  0  0  0
   -4.8058   -0.7101    2.5529 H   0  0  0  0  0  0  0  0  0  0  0  0
  1  2  1  0
  2  3  2  0
  3  4  1  0
  4  5  1  0
  5  6  2  0
  6  7  1  0
  7  8  1  0
  8  9  1  0
  9 10  1  0
 10 11  1  0
 11 12  1  0
 12 13  1  0
 13 14  1  0
 14 15  2  0
 15 16  1  0
 16 17  1  0
 17 18  2  0
 18 19  1  0
 11 20  2  0
 20 21  1  0
 21 22  2  0
 22 23  1  0
 23 24  1  0
  6 25  1  0
 25 26  1  0
 26 27  1  0
 27 28  2  0
 28 29  1  0
 29 30  2  0
 30 31  1  0
 31 32  1  0
  5  1  1  0
 24  9  2  0
 32 25  2  0
  8  4  2  0
 19 12  2  0
 24 20  1  0
 32 28  1  0
 19 15  1  0
  1 33  1  0
  1 34  1  0
  2 35  1  0
  3 36  1  0
 14 37  1  0
 17 38  1  0
 18 39  1  0
 21 40  1  0
 22 41  1  0
 27 42  1  0
 29 43  1  0
 30 44  1  0
 31 45  1  0
 31 46  1  0
M  END
