
     RDKit          3D

 42 47  0  0  0  0  0  0  0  0999 V2000
   -0.0801    3.1806   -1.4147 C   0  0  0  0  0  0  0  0  0  0  0  0
   -1.4510    3.7866   -1.7207 C   0  0  0  0  0  0  0  0  0  0  0  0
   -2.4430    3.0753   -1.1396 C   0  0  0  0  0  0  0  0  0  0  0  0
   -1.8843    1.9818   -0.4268 C   0  0  0  0  0  0  0  0  0  0  0  0
   -0.4744    2.0131   -0.5723 C   0  0  0  0  0  0  0  0  0  0  0  0
    0.1531    0.9693    0.0609 C   0  0  0  0  0  0  0  0  0  0  0  0
   -1.0305   -0.0222    0.8475 S   0  0  0  0  0  0  0  0  0  0  0  0
   -2.3649    0.9402    0.3151 C   0  0  0  0  0  0  0  0  0  0  0  0
   -3.7181    0.6119    0.6643 C   0  0  0  0  0  0  0  0  0  0  0  0
   -4.7586    1.7755    1.4181 S   0  0  0  0  0  0  0  0  0  0  0  0
   -6.0905    0.6799    1.5032 C   0  0  0  0  0  0  0  0  0  0  0  0
   -5.7506   -0.5334    0.9704 C   0  0  0  0  0  0  0  0  0  0  0  0
   -6.5215   -1.7285    0.8146 C   0  0  0  0  0  0  0  0  0  0  0  0
   -5.8666   -2.7531    0.2265 C   0  0  0  0  0  0  0  0  0  0  0  0
   -4.0652   -2.2641   -0.2184 Si  0  0  0  0  0  4  0  0  0  0  0  0
   -4.4070   -0.5568    0.5065 C   0  0  0  0  0  0  0  0  0  0  0  0
    1.5658    0.6903    0.1242 C   0  0  0  0  0  0  0  0  0  0  0  0
    2.5852    1.6128    0.2396 C   0  0  0  0  0  0  0  0  0  0  0  0
    3.8755    1.0056    0.2568 C   0  0  0  0  0  0  0  0  0  0  0  0
    3.8321   -0.3746    0.1467 C   0  0  0  0  0  0  0  0  0  0  0  0
    2.1930   -0.8991    0.0255 S   0  0  0  0  0  0  0  0  0  0  0  0
    4.8966   -1.3114    0.1385 C   0  0  0  0  0  0  0  0  0  0  0  0
    6.3888   -1.1978    1.2878 Si  0  0  0  0  0  4  0  0  0  0  0  0
    7.0399   -2.7612    0.4681 C   0  0  0  0  0  0  0  0  0  0  0  0
    6.1938   -3.1977   -0.4826 C   0  0  0  0  0  0  0  0  0  0  0  0
    4.9963   -2.3895   -0.6675 C   0  0  0  0  0  0  0  0  0  0  0  0
    0.4209    2.8678   -2.3350 H   0  0  0  0  0  0  0  0  0  0  0  0
    0.5390    3.8932   -0.8630 H   0  0  0  0  0  0  0  0  0  0  0  0
   -1.5915    4.6693   -2.3266 H   0  0  0  0  0  0  0  0  0  0  0  0
   -3.4998    3.2937   -1.2069 H   0  0  0  0  0  0  0  0  0  0  0  0
   -7.0302    0.9970    1.9328 H   0  0  0  0  0  0  0  0  0  0  0  0
   -7.5515   -1.7953    1.1456 H   0  0  0  0  0  0  0  0  0  0  0  0
   -6.2404   -3.7399    0.0073 H   0  0  0  0  0  0  0  0  0  0  0  0
   -3.8797   -2.2792   -1.6912 H   0  0  0  0  0  0  0  0  0  0  0  0
   -3.1087   -3.0907    0.5589 H   0  0  0  0  0  0  0  0  0  0  0  0
    2.4222    2.6801    0.3215 H   0  0  0  0  0  0  0  0  0  0  0  0
    4.7968    1.5705    0.3375 H   0  0  0  0  0  0  0  0  0  0  0  0
    6.0555   -1.4202    2.7172 H   0  0  0  0  0  0  0  0  0  0  0  0
    7.2477   -0.0198    1.0007 H   0  0  0  0  0  0  0  0  0  0  0  0
    7.9753   -3.2095    0.7633 H   0  0  0  0  0  0  0  0  0  0  0  0
    6.3641   -4.0832   -1.0829 H   0  0  0  0  0  0  0  0  0  0  0  0
    4.2663   -2.6673   -1.4188 H   0  0  0  0  0  0  0  0  0  0  0  0
  1  2  1  0
  2  3  2  0
  3  4  1  0
  4  5  1  0
  5  6  2  0
  6  7  1  0
  7  8  1  0
  8  9  1  0
  9 10  1  0
 10 11  1  0
 11 12  2  0
 12 13  1  0
 13 14  2  0
 14 15  1  0
 15 16  1  0
  6 17  1  0
 17 18  2  0
 18 19  1  0
 19 20  2  0
 20 21  1  0
 20 22  1  0
 22 23  1  0
 23 24  1  0
 24 25  2  0
 25 26  1  0
  5  1  1  0
 16  9  2  0
 21 17  1  0
 26 22  2  0
  8  4  2  0
 16 12  1  0
  1 27  1  0
  1 28  1  0
  2 29  1  0
  3 30  1  0
 11 31  1  0
 13 32  1  0
 14 33  1  0
 15 34  1  0
 15 35  1  0
 18 36  1  0
 19 37  1  0
 23 38  1  0
 23 39  1  0
 24 40  1  0
 25 41  1  0
 26 42  1  0
M  END
