
     RDKit          3D

 44 50  0  0  0  0  0  0  0  0999 V2000
    3.7249   -3.2981    1.9081 Si  0  0  0  0  0  4  0  0  0  0  0  0
    4.6822   -1.8194    1.3105 C   0  0  0  0  0  0  0  0  0  0  0  0
    3.8870   -0.9176    0.6949 C   0  0  0  0  0  0  0  0  0  0  0  0
    4.3794    0.2702   -0.0363 C   0  0  0  0  0  0  0  0  0  0  0  0
    5.7277    0.6719   -0.0066 C   0  0  0  0  0  0  0  0  0  0  0  0
    6.1687    1.7637   -0.7539 C   0  0  0  0  0  0  0  0  0  0  0  0
    5.2697    2.4687   -1.5413 C   0  0  0  0  0  0  0  0  0  0  0  0
    3.9271    2.0882   -1.5698 C   0  0  0  0  0  0  0  0  0  0  0  0
    3.4475    0.9923   -0.8189 C   0  0  0  0  0  0  0  0  0  0  0  0
    1.9976    0.6452   -0.8116 C   0  0  0  0  0  0  0  0  0  0  0  0
    1.2196    1.4366   -1.5986 N   0  0  0  0  0  0  0  0  0  0  0  0
   -0.1143    1.2660   -1.5487 C   0  0  0  0  0  0  0  0  0  0  0  0
   -0.7583    0.3769   -0.7010 C   0  0  0  0  0  0  0  0  0  0  0  0
   -2.1609    0.3144   -0.6594 C   0  0  0  0  0  0  0  0  0  0  0  0
   -2.7786   -0.5344    0.2453 C   0  0  0  0  0  0  0  0  0  0  0  0
   -2.0623   -1.2907    1.1024 N   0  0  0  0  0  0  0  0  0  0  0  0
   -0.7077   -1.2148    1.0334 C   0  0  0  0  0  0  0  0  0  0  0  0
    0.0347   -0.4382    0.1276 C   0  0  0  0  0  0  0  0  0  0  0  0
    1.4607   -0.3720    0.0092 C   0  0  0  0  0  0  0  0  0  0  0  0
    2.4443   -1.2729    0.6741 C   0  0  0  0  0  0  0  0  0  0  0  0
    2.1983   -2.5047    1.1732 C   0  0  0  0  0  0  0  0  0  0  0  0
   -4.2386   -0.6534    0.3533 C   0  0  0  0  0  0  0  0  0  0  0  0
   -4.9403   -2.1537    0.8699 S   0  0  0  0  0  0  0  0  0  0  0  0
   -6.5422   -1.5642    0.7489 C   0  0  0  0  0  0  0  0  0  0  0  0
   -6.5607   -0.2630    0.3246 C   0  0  0  0  0  0  0  0  0  0  0  0
   -7.7160    0.4365    0.1490 N   0  0  0  0  0  0  0  0  0  0  0  0
   -7.4536    1.7037   -0.2689 C   0  0  0  0  0  0  0  0  0  0  0  0
   -6.1759    2.2267   -0.4970 C   0  0  0  0  0  0  0  0  0  0  0  0
   -5.0073    1.5463   -0.3362 N   0  0  0  0  0  0  0  0  0  0  0  0
   -5.2362    0.2670    0.0905 C   0  0  0  0  0  0  0  0  0  0  0  0
    4.1042   -4.5469    1.2060 H   0  0  0  0  0  0  0  0  0  0  0  0
    3.6591   -3.3780    3.3866 H   0  0  0  0  0  0  0  0  0  0  0  0
    5.7547   -1.8059    1.4104 H   0  0  0  0  0  0  0  0  0  0  0  0
    6.4579    0.1403    0.5961 H   0  0  0  0  0  0  0  0  0  0  0  0
    7.2141    2.0590   -0.7220 H   0  0  0  0  0  0  0  0  0  0  0  0
    5.6044    3.3197   -2.1284 H   0  0  0  0  0  0  0  0  0  0  0  0
    3.2399    2.6689   -2.1837 H   0  0  0  0  0  0  0  0  0  0  0  0
   -0.6721    1.9206   -2.2145 H   0  0  0  0  0  0  0  0  0  0  0  0
   -2.7552    0.9330   -1.3252 H   0  0  0  0  0  0  0  0  0  0  0  0
   -0.2284   -1.8006    1.8092 H   0  0  0  0  0  0  0  0  0  0  0  0
    1.2848   -3.0726    1.1755 H   0  0  0  0  0  0  0  0  0  0  0  0
   -7.3855   -2.1933    0.9936 H   0  0  0  0  0  0  0  0  0  0  0  0
   -8.3324    2.3234   -0.4248 H   0  0  0  0  0  0  0  0  0  0  0  0
   -6.0620    3.2550   -0.8296 H   0  0  0  0  0  0  0  0  0  0  0  0
  1  2  1  0
  2  3  2  0
  3  4  1  0
  4  5  2  0
  5  6  1  0
  6  7  2  0
  7  8  1  0
  8  9  2  0
  9 10  1  0
 10 11  2  0
 11 12  1  0
 12 13  2  0
 13 14  1  0
 14 15  2  0
 15 16  1  0
 16 17  2  0
 17 18  1  0
 18 19  2  0
 19 20  1  0
 20 21  2  0
 15 22  1  0
 22 23  1  0
 23 24  1  0
 24 25  2  0
 25 26  1  0
 26 27  2  0
 27 28  1  0
 28 29  2  0
 29 30  1  0
 21  1  1  0
 30 22  2  0
 20  3  1  0
 30 25  1  0
  9  4  1  0
 19 10  1  0
 18 13  1  0
  1 31  1  0
  1 32  1  0
  2 33  1  0
  5 34  1  0
  6 35  1  0
  7 36  1  0
  8 37  1  0
 12 38  1  0
 14 39  1  0
 17 40  1  0
 21 41  1  0
 24 42  1  0
 27 43  1  0
 28 44  1  0
M  END
