
     RDKit          3D

 44 50  0  0  0  0  0  0  0  0999 V2000
    3.6037    1.4502    1.1119 C   0  0  0  0  0  0  0  0  0  0  0  0
    4.6352    0.4102    1.4457 C   0  0  0  0  0  0  0  0  0  0  0  0
    4.2074   -0.8300    1.1761 C   0  0  0  0  0  0  0  0  0  0  0  0
    2.8474   -0.7406    0.6462 C   0  0  0  0  0  0  0  0  0  0  0  0
    2.4648    0.6049    0.6212 C   0  0  0  0  0  0  0  0  0  0  0  0
    1.1797    0.9872    0.1941 C   0  0  0  0  0  0  0  0  0  0  0  0
    0.7006    2.3206    0.0309 C   0  0  0  0  0  0  0  0  0  0  0  0
    1.3880    3.5025    0.1897 C   0  0  0  0  0  0  0  0  0  0  0  0
    0.5332    4.5355   -0.1279 N   0  0  0  0  0  0  0  0  0  0  0  0
   -0.6952    4.0350   -0.4848 C   0  0  0  0  0  0  0  0  0  0  0  0
   -0.6183    2.6653   -0.3915 C   0  0  0  0  0  0  0  0  0  0  0  0
   -1.6420    1.7502   -0.6075 C   0  0  0  0  0  0  0  0  0  0  0  0
   -2.9808    2.1318   -1.0744 C   0  0  0  0  0  0  0  0  0  0  0  0
   -3.9794    1.2349   -1.0868 C   0  0  0  0  0  0  0  0  0  0  0  0
   -3.7560   -0.0840   -0.5419 C   0  0  0  0  0  0  0  0  0  0  0  0
   -4.7487   -0.9590   -0.2913 C   0  0  0  0  0  0  0  0  0  0  0  0
   -4.1122   -2.4311    0.6625 Si  0  0  0  0  0  4  0  0  0  0  0  0
   -2.4219   -1.6377    0.6383 C   0  0  0  0  0  0  0  0  0  0  0  0
   -2.4018   -0.5077   -0.1026 C   0  0  0  0  0  0  0  0  0  0  0  0
   -1.2193    0.4015   -0.3306 C   0  0  0  0  0  0  0  0  0  0  0  0
    0.1979   -0.0145   -0.1444 C   0  0  0  0  0  0  0  0  0  0  0  0
    0.7165   -1.3708   -0.3147 C   0  0  0  0  0  0  0  0  0  0  0  0
    0.0162   -2.3822   -1.0207 C   0  0  0  0  0  0  0  0  0  0  0  0
    0.4749   -3.6974   -1.1436 C   0  0  0  0  0  0  0  0  0  0  0  0
    1.6888   -4.0532   -0.5878 C   0  0  0  0  0  0  0  0  0  0  0  0
    2.4592   -3.0780    0.0364 C   0  0  0  0  0  0  0  0  0  0  0  0
    2.0155   -1.7395    0.1428 C   0  0  0  0  0  0  0  0  0  0  0  0
    3.9857    2.1082    0.3265 H   0  0  0  0  0  0  0  0  0  0  0  0
    3.3286    2.0151    2.0071 H   0  0  0  0  0  0  0  0  0  0  0  0
    5.6081    0.6496    1.8502 H   0  0  0  0  0  0  0  0  0  0  0  0
    4.7610   -1.7423    1.3230 H   0  0  0  0  0  0  0  0  0  0  0  0
    2.3994    3.7361    0.4826 H   0  0  0  0  0  0  0  0  0  0  0  0
    0.7747    5.5178   -0.0996 H   0  0  0  0  0  0  0  0  0  0  0  0
   -1.4998    4.7060   -0.7517 H   0  0  0  0  0  0  0  0  0  0  0  0
   -3.1431    3.1366   -1.4444 H   0  0  0  0  0  0  0  0  0  0  0  0
   -4.9678    1.5054   -1.4415 H   0  0  0  0  0  0  0  0  0  0  0  0
   -5.8004   -0.8302   -0.4909 H   0  0  0  0  0  0  0  0  0  0  0  0
   -4.6896   -2.5142    2.0259 H   0  0  0  0  0  0  0  0  0  0  0  0
   -4.1640   -3.6821   -0.1329 H   0  0  0  0  0  0  0  0  0  0  0  0
   -1.6033   -2.0942    1.1714 H   0  0  0  0  0  0  0  0  0  0  0  0
   -0.9165   -2.1439   -1.5283 H   0  0  0  0  0  0  0  0  0  0  0  0
   -0.1192   -4.4302   -1.6828 H   0  0  0  0  0  0  0  0  0  0  0  0
    2.0567   -5.0715   -0.6731 H   0  0  0  0  0  0  0  0  0  0  0  0
    3.4360   -3.3702    0.4134 H   0  0  0  0  0  0  0  0  0  0  0  0
  1  2  1  0
  2  3  2  0
  3  4  1  0
  4  5  2  0
  5  6  1  0
  6  7  1  0
  7  8  2  0
  8  9  1  0
  9 10  1  0
 10 11  2  0
 11 12  1  0
 12 13  1  0
 13 14  2  0
 14 15  1  0
 15 16  2  0
 16 17  1  0
 17 18  1  0
 18 19  2  0
 19 20  1  0
 20 21  1  0
 21 22  1  0
 22 23  2  0
 23 24  1  0
 24 25  2  0
 25 26  1  0
 26 27  2  0
  5  1  1  0
 21  6  2  0
 27 22  1  0
 27  4  1  0
 11  7  1  0
 20 12  2  0
 19 15  1  0
  1 28  1  0
  1 29  1  0
  2 30  1  0
  3 31  1  0
  8 32  1  0
  9 33  1  0
 10 34  1  0
 13 35  1  0
 14 36  1  0
 16 37  1  0
 17 38  1  0
 17 39  1  0
 18 40  1  0
 23 41  1  0
 24 42  1  0
 25 43  1  0
 26 44  1  0
M  END
