
     RDKit          3D

 46 52  0  0  0  0  0  0  0  0999 V2000
   -8.0117   -0.0839   -0.1635 C   0  0  0  0  0  0  0  0  0  0  0  0
   -7.1023   -1.2860   -0.4262 C   0  0  0  0  0  0  0  0  0  0  0  0
   -5.8076   -0.9881   -0.1727 C   0  0  0  0  0  0  0  0  0  0  0  0
   -5.7075    0.3627    0.2579 C   0  0  0  0  0  0  0  0  0  0  0  0
   -7.0074    0.9239    0.2797 C   0  0  0  0  0  0  0  0  0  0  0  0
   -7.0113    2.2228    0.7014 C   0  0  0  0  0  0  0  0  0  0  0  0
   -5.4077    2.7384    1.0707 S   0  0  0  0  0  0  0  0  0  0  0  0
   -4.6946    1.2002    0.6493 C   0  0  0  0  0  0  0  0  0  0  0  0
   -3.2971    1.0111    0.7353 C   0  0  0  0  0  0  0  0  0  0  0  0
   -2.2431    0.4145   -0.7024 Si  0  0  0  0  0  4  0  0  0  0  0  0
   -0.7316    0.5535    0.4413 C   0  0  0  0  0  0  0  0  0  0  0  0
   -1.1164    0.9889    1.6618 C   0  0  0  0  0  0  0  0  0  0  0  0
   -2.5424    1.2437    1.8267 C   0  0  0  0  0  0  0  0  0  0  0  0
    0.5997    0.2764    0.0530 C   0  0  0  0  0  0  0  0  0  0  0  0
    2.0142    0.9382    0.8335 S   0  0  0  0  0  0  0  0  0  0  0  0
    3.1383    0.1324   -0.2194 C   0  0  0  0  0  0  0  0  0  0  0  0
    4.5631    0.3043   -0.0450 C   0  0  0  0  0  0  0  0  0  0  0  0
    5.2393    1.5511   -0.0140 C   0  0  0  0  0  0  0  0  0  0  0  0
    6.6658    1.6942    0.1414 C   0  0  0  0  0  0  0  0  0  0  0  0
    7.5657    0.6121    0.2842 C   0  0  0  0  0  0  0  0  0  0  0  0
    6.8775   -0.5931    0.2569 C   0  0  0  0  0  0  0  0  0  0  0  0
    7.4108   -1.8475    0.3803 C   0  0  0  0  0  0  0  0  0  0  0  0
    6.4069   -2.7757    0.3224 O   0  0  0  0  0  0  0  0  0  0  0  0
    5.2267   -2.0999    0.1634 C   0  0  0  0  0  0  0  0  0  0  0  0
    5.4672   -0.7506    0.1019 C   0  0  0  0  0  0  0  0  0  0  0  0
    2.4103   -0.5852   -1.1041 C   0  0  0  0  0  0  0  0  0  0  0  0
    2.5904   -1.4344   -2.2101 C   0  0  0  0  0  0  0  0  0  0  0  0
    1.2975   -1.7917   -2.6064 C   0  0  0  0  0  0  0  0  0  0  0  0
    0.2952   -1.2295   -1.8398 O   0  0  0  0  0  0  0  0  0  0  0  0
    1.0450   -0.5077   -0.9572 C   0  0  0  0  0  0  0  0  0  0  0  0
   -8.5226    0.2253   -1.0795 H   0  0  0  0  0  0  0  0  0  0  0  0
   -8.7368   -0.3093    0.6233 H   0  0  0  0  0  0  0  0  0  0  0  0
   -7.4654   -2.2456   -0.7626 H   0  0  0  0  0  0  0  0  0  0  0  0
   -4.9765   -1.6724   -0.2693 H   0  0  0  0  0  0  0  0  0  0  0  0
   -7.8465    2.8983    0.8207 H   0  0  0  0  0  0  0  0  0  0  0  0
   -2.1957    1.3900   -1.8242 H   0  0  0  0  0  0  0  0  0  0  0  0
   -2.5690   -0.9898   -1.0713 H   0  0  0  0  0  0  0  0  0  0  0  0
   -0.4497    1.1583    2.4993 H   0  0  0  0  0  0  0  0  0  0  0  0
   -2.9290    1.5954    2.7761 H   0  0  0  0  0  0  0  0  0  0  0  0
    4.6553    2.4666   -0.1226 H   0  0  0  0  0  0  0  0  0  0  0  0
    7.0738    2.7064    0.1485 H   0  0  0  0  0  0  0  0  0  0  0  0
    8.6329    0.7329    0.4030 H   0  0  0  0  0  0  0  0  0  0  0  0
    8.4064   -2.2460    0.5143 H   0  0  0  0  0  0  0  0  0  0  0  0
    4.3435   -2.7215    0.1202 H   0  0  0  0  0  0  0  0  0  0  0  0
    3.5115   -1.7570   -2.6746 H   0  0  0  0  0  0  0  0  0  0  0  0
    0.9346   -2.4264   -3.4046 H   0  0  0  0  0  0  0  0  0  0  0  0
  1  2  1  0
  2  3  2  0
  3  4  1  0
  4  5  1  0
  5  6  2  0
  6  7  1  0
  7  8  1  0
  8  9  1  0
  9 10  1  0
 10 11  1  0
 11 12  2  0
 12 13  1  0
 11 14  1  0
 14 15  1  0
 15 16  1  0
 16 17  1  0
 17 18  2  0
 18 19  1  0
 19 20  2  0
 20 21  1  0
 21 22  2  0
 22 23  1  0
 23 24  1  0
 24 25  2  0
 16 26  2  0
 26 27  1  0
 27 28  2  0
 28 29  1  0
 29 30  1  0
  5  1  1  0
 13  9  2  0
 30 14  2  0
  8  4  2  0
 25 17  1  0
 30 26  1  0
 25 21  1  0
  1 31  1  0
  1 32  1  0
  2 33  1  0
  3 34  1  0
  6 35  1  0
 10 36  1  0
 10 37  1  0
 12 38  1  0
 13 39  1  0
 18 40  1  0
 19 41  1  0
 20 42  1  0
 22 43  1  0
 24 44  1  0
 27 45  1  0
 28 46  1  0
M  END
