
     RDKit          3D

 43 49  0  0  0  0  0  0  0  0999 V2000
   -7.0859    0.9771   -0.9556 C   0  0  0  0  0  0  0  0  0  0  0  0
   -5.9610    1.2056   -1.9705 C   0  0  0  0  0  0  0  0  0  0  0  0
   -4.7588    0.8513   -1.4615 C   0  0  0  0  0  0  0  0  0  0  0  0
   -4.9327    0.3791   -0.1347 C   0  0  0  0  0  0  0  0  0  0  0  0
   -6.3072    0.4385    0.1956 C   0  0  0  0  0  0  0  0  0  0  0  0
   -6.5605   -0.0094    1.4625 C   0  0  0  0  0  0  0  0  0  0  0  0
   -5.0920   -0.5031    2.2306 S   0  0  0  0  0  0  0  0  0  0  0  0
   -4.1209   -0.1013    0.8537 C   0  0  0  0  0  0  0  0  0  0  0  0
   -2.6856   -0.3023    0.8950 C   0  0  0  0  0  0  0  0  0  0  0  0
   -2.0778   -1.5760    0.9929 C   0  0  0  0  0  0  0  0  0  0  0  0
   -0.6634   -1.7811    1.0099 C   0  0  0  0  0  0  0  0  0  0  0  0
    0.2873   -0.7356    0.9183 C   0  0  0  0  0  0  0  0  0  0  0  0
    1.7181   -0.9842    0.9263 C   0  0  0  0  0  0  0  0  0  0  0  0
    2.3662   -1.5699    1.9101 N   0  0  0  0  0  0  0  0  0  0  0  0
    3.7026   -1.6927    1.5777 C   0  0  0  0  0  0  0  0  0  0  0  0
    4.0699   -1.2180    0.3309 C   0  0  0  0  0  0  0  0  0  0  0  0
    2.6682   -0.6176   -0.4592 S   0  0  0  0  0  0  0  0  0  0  0  0
    5.3712   -1.2283   -0.2811 C   0  0  0  0  0  0  0  0  0  0  0  0
    6.5042   -2.5009    0.0382 S   0  0  0  0  0  0  0  0  0  0  0  0
    7.7056   -1.8450   -1.0015 C   0  0  0  0  0  0  0  0  0  0  0  0
    7.2621   -0.6849   -1.5654 C   0  0  0  0  0  0  0  0  0  0  0  0
    8.0743    0.4421   -2.7120 S   0  0  0  0  0  0  0  0  0  0  0  0
    6.5961    1.3815   -2.5951 C   0  0  0  0  0  0  0  0  0  0  0  0
    5.5972    0.8647   -1.7616 C   0  0  0  0  0  0  0  0  0  0  0  0
    5.9672   -0.3671   -1.1486 C   0  0  0  0  0  0  0  0  0  0  0  0
   -0.3091    0.5383    0.8501 C   0  0  0  0  0  0  0  0  0  0  0  0
    0.3783    1.7309    0.8326 C   0  0  0  0  0  0  0  0  0  0  0  0
   -0.6797    3.0811    0.7557 S   0  0  0  0  0  0  0  0  0  0  0  0
   -2.0745    2.0824    0.7869 C   0  0  0  0  0  0  0  0  0  0  0  0
   -1.7478    0.7461    0.8347 C   0  0  0  0  0  0  0  0  0  0  0  0
   -7.5821    1.9191   -0.7067 H   0  0  0  0  0  0  0  0  0  0  0  0
   -7.8092    0.2497   -1.3342 H   0  0  0  0  0  0  0  0  0  0  0  0
   -6.1254    1.5980   -2.9630 H   0  0  0  0  0  0  0  0  0  0  0  0
   -3.8094    0.9121   -1.9752 H   0  0  0  0  0  0  0  0  0  0  0  0
   -7.5039   -0.0826    1.9851 H   0  0  0  0  0  0  0  0  0  0  0  0
   -2.7172   -2.4579    1.0553 H   0  0  0  0  0  0  0  0  0  0  0  0
   -0.3001   -2.8070    1.0950 H   0  0  0  0  0  0  0  0  0  0  0  0
    4.3746   -2.1433    2.2990 H   0  0  0  0  0  0  0  0  0  0  0  0
    8.6661   -2.3184   -1.1524 H   0  0  0  0  0  0  0  0  0  0  0  0
    6.5488    2.2980   -3.1678 H   0  0  0  0  0  0  0  0  0  0  0  0
    4.6548    1.3781   -1.6183 H   0  0  0  0  0  0  0  0  0  0  0  0
    1.4440    1.9089    0.8678 H   0  0  0  0  0  0  0  0  0  0  0  0
   -3.0527    2.5441    0.7786 H   0  0  0  0  0  0  0  0  0  0  0  0
  1  2  1  0
  2  3  2  0
  3  4  1  0
  4  5  1  0
  5  6  2  0
  6  7  1  0
  7  8  1  0
  8  9  1  0
  9 10  2  0
 10 11  1  0
 11 12  2  0
 12 13  1  0
 13 14  2  0
 14 15  1  0
 15 16  2  0
 16 17  1  0
 16 18  1  0
 18 19  1  0
 19 20  1  0
 20 21  2  0
 21 22  1  0
 22 23  1  0
 23 24  2  0
 24 25  1  0
 12 26  1  0
 26 27  2  0
 27 28  1  0
 28 29  1  0
 29 30  2  0
  5  1  1  0
 30  9  1  0
  8  4  2  0
 17 13  1  0
 25 18  2  0
 30 26  1  0
 25 21  1  0
  1 31  1  0
  1 32  1  0
  2 33  1  0
  3 34  1  0
  6 35  1  0
 10 36  1  0
 11 37  1  0
 15 38  1  0
 20 39  1  0
 23 40  1  0
 24 41  1  0
 27 42  1  0
 29 43  1  0
M  END
