
     RDKit          3D

 47 53  0  0  0  0  0  0  0  0999 V2000
    7.1360    0.1461   -1.4477 C   0  0  0  0  0  0  0  0  0  0  0  0
    6.2031   -0.9399   -1.9933 C   0  0  0  0  0  0  0  0  0  0  0  0
    4.9369   -0.7694   -1.5487 C   0  0  0  0  0  0  0  0  0  0  0  0
    4.8843    0.3753   -0.7115 C   0  0  0  0  0  0  0  0  0  0  0  0
    6.1776    0.9421   -0.6295 C   0  0  0  0  0  0  0  0  0  0  0  0
    6.2114    2.0525    0.1668 C   0  0  0  0  0  0  0  0  0  0  0  0
    4.6403    2.3828    0.8074 S   0  0  0  0  0  0  0  0  0  0  0  0
    3.9124    1.0217    0.0027 C   0  0  0  0  0  0  0  0  0  0  0  0
    2.5211    0.7427    0.1534 C   0  0  0  0  0  0  0  0  0  0  0  0
    1.6964    1.1505   -0.8386 C   0  0  0  0  0  0  0  0  0  0  0  0
    0.2529    0.9228   -0.8210 C   0  0  0  0  0  0  0  0  0  0  0  0
   -0.3875    0.2907    0.1912 C   0  0  0  0  0  0  0  0  0  0  0  0
   -1.7980    0.1029    0.0723 C   0  0  0  0  0  0  0  0  0  0  0  0
   -2.9150    1.4510    0.0566 S   0  0  0  0  0  0  0  0  0  0  0  0
   -4.3293    0.4497   -0.0760 C   0  0  0  0  0  0  0  0  0  0  0  0
   -5.6871    0.9753   -0.1456 C   0  0  0  0  0  0  0  0  0  0  0  0
   -5.8386    2.3009   -0.1168 N   0  0  0  0  0  0  0  0  0  0  0  0
   -7.1004    2.7113   -0.1834 C   0  0  0  0  0  0  0  0  0  0  0  0
   -8.1731    1.9292   -0.2739 N   0  0  0  0  0  0  0  0  0  0  0  0
   -7.8946    0.6287   -0.2947 C   0  0  0  0  0  0  0  0  0  0  0  0
   -6.6821    0.0832   -0.2348 N   0  0  0  0  0  0  0  0  0  0  0  0
   -3.9156   -0.8385   -0.0951 C   0  0  0  0  0  0  0  0  0  0  0  0
   -4.6873   -1.9637   -0.1838 N   0  0  0  0  0  0  0  0  0  0  0  0
   -3.7229   -2.9664   -0.1559 C   0  0  0  0  0  0  0  0  0  0  0  0
   -2.4219   -2.4304   -0.0546 C   0  0  0  0  0  0  0  0  0  0  0  0
   -2.5529   -1.0178   -0.0133 C   0  0  0  0  0  0  0  0  0  0  0  0
    0.4402   -0.1869    1.3067 C   0  0  0  0  0  0  0  0  0  0  0  0
   -0.0061   -0.8291    2.4066 C   0  0  0  0  0  0  0  0  0  0  0  0
    1.3949   -1.2545    3.5623 Si  0  0  0  0  0  4  0  0  0  0  0  0
    2.5675   -0.4505    2.3570 C   0  0  0  0  0  0  0  0  0  0  0  0
    1.9105    0.0380    1.2845 C   0  0  0  0  0  0  0  0  0  0  0  0
    7.5640    0.7363   -2.2627 H   0  0  0  0  0  0  0  0  0  0  0  0
    7.9275   -0.2936   -0.8347 H   0  0  0  0  0  0  0  0  0  0  0  0
    6.5313   -1.7343   -2.6467 H   0  0  0  0  0  0  0  0  0  0  0  0
    4.0897   -1.3988   -1.7832 H   0  0  0  0  0  0  0  0  0  0  0  0
    7.0489    2.6887    0.4156 H   0  0  0  0  0  0  0  0  0  0  0  0
    2.0835    1.6770   -1.7080 H   0  0  0  0  0  0  0  0  0  0  0  0
   -0.2893    1.2871   -1.6906 H   0  0  0  0  0  0  0  0  0  0  0  0
   -7.2711    3.7824   -0.1622 H   0  0  0  0  0  0  0  0  0  0  0  0
   -8.7376   -0.0505   -0.3675 H   0  0  0  0  0  0  0  0  0  0  0  0
   -5.6997   -2.0010   -0.2503 H   0  0  0  0  0  0  0  0  0  0  0  0
   -4.0394   -4.0000   -0.2125 H   0  0  0  0  0  0  0  0  0  0  0  0
   -1.5064   -3.0063   -0.0170 H   0  0  0  0  0  0  0  0  0  0  0  0
   -1.0247   -1.0913    2.6452 H   0  0  0  0  0  0  0  0  0  0  0  0
    1.6111   -2.7176    3.6723 H   0  0  0  0  0  0  0  0  0  0  0  0
    1.3113   -0.5253    4.8508 H   0  0  0  0  0  0  0  0  0  0  0  0
    3.6275   -0.4032    2.5510 H   0  0  0  0  0  0  0  0  0  0  0  0
  1  2  1  0
  2  3  2  0
  3  4  1  0
  4  5  1  0
  5  6  2  0
  6  7  1  0
  7  8  1  0
  8  9  1  0
  9 10  2  0
 10 11  1  0
 11 12  2  0
 12 13  1  0
 13 14  1  0
 14 15  1  0
 15 16  1  0
 16 17  2  0
 17 18  1  0
 18 19  2  0
 19 20  1  0
 20 21  2  0
 15 22  2  0
 22 23  1  0
 23 24  1  0
 24 25  2  0
 25 26  1  0
 12 27  1  0
 27 28  2  0
 28 29  1  0
 29 30  1  0
 30 31  2  0
  5  1  1  0
 31  9  1  0
  8  4  2  0
 26 13  2  0
 31 27  1  0
 21 16  1  0
 26 22  1  0
  1 32  1  0
  1 33  1  0
  2 34  1  0
  3 35  1  0
  6 36  1  0
 10 37  1  0
 11 38  1  0
 18 39  1  0
 20 40  1  0
 23 41  1  0
 24 42  1  0
 25 43  1  0
 28 44  1  0
 29 45  1  0
 29 46  1  0
 30 47  1  0
M  END
