
     RDKit          3D

 44 50  0  0  0  0  0  0  0  0999 V2000
    8.3551   -0.9195    0.0973 C   0  0  0  0  0  0  0  0  0  0  0  0
    7.5406   -2.0596   -0.5188 C   0  0  0  0  0  0  0  0  0  0  0  0
    6.2317   -1.7328   -0.6164 C   0  0  0  0  0  0  0  0  0  0  0  0
    6.0329   -0.4194   -0.1122 C   0  0  0  0  0  0  0  0  0  0  0  0
    7.2810    0.0880    0.3262 C   0  0  0  0  0  0  0  0  0  0  0  0
    7.1823    1.3488    0.8443 C   0  0  0  0  0  0  0  0  0  0  0  0
    5.5457    1.8954    0.7835 S   0  0  0  0  0  0  0  0  0  0  0  0
    4.9699    0.4267    0.0570 C   0  0  0  0  0  0  0  0  0  0  0  0
    3.5886    0.2319   -0.3027 C   0  0  0  0  0  0  0  0  0  0  0  0
    3.1097   -0.3546   -1.4571 C   0  0  0  0  0  0  0  0  0  0  0  0
    1.6862   -0.4068   -1.4912 C   0  0  0  0  0  0  0  0  0  0  0  0
    1.0979    0.1557   -0.3713 C   0  0  0  0  0  0  0  0  0  0  0  0
    2.2994    0.6956    0.7249 S   0  0  0  0  0  0  0  0  0  0  0  0
   -0.3277    0.2483   -0.0722 C   0  0  0  0  0  0  0  0  0  0  0  0
   -1.1263   -0.7263   -0.6159 N   0  0  0  0  0  0  0  0  0  0  0  0
   -2.4793   -0.7359   -0.4002 C   0  0  0  0  0  0  0  0  0  0  0  0
   -3.2416    0.1823    0.3300 C   0  0  0  0  0  0  0  0  0  0  0  0
   -4.6778    0.0925    0.5098 C   0  0  0  0  0  0  0  0  0  0  0  0
   -5.3088   -0.0424    1.7766 C   0  0  0  0  0  0  0  0  0  0  0  0
   -6.7231   -0.1624    1.9723 C   0  0  0  0  0  0  0  0  0  0  0  0
   -7.6644   -0.1591    0.9238 C   0  0  0  0  0  0  0  0  0  0  0  0
   -7.0522   -0.0156   -0.3202 C   0  0  0  0  0  0  0  0  0  0  0  0
   -7.7739    0.0291   -1.4873 C   0  0  0  0  0  0  0  0  0  0  0  0
   -6.7457    0.2353   -2.8470 S   0  0  0  0  0  0  0  0  0  0  0  0
   -5.3321    0.2700   -1.8668 C   0  0  0  0  0  0  0  0  0  0  0  0
   -5.6273    0.1062   -0.5318 C   0  0  0  0  0  0  0  0  0  0  0  0
   -2.4558    1.2187    0.8982 C   0  0  0  0  0  0  0  0  0  0  0  0
   -2.9099    2.2414    1.6466 N   0  0  0  0  0  0  0  0  0  0  0  0
   -1.6041    3.1801    2.0330 S   0  0  0  0  0  0  0  0  0  0  0  0
   -0.3943    2.3424    1.2811 N   0  0  0  0  0  0  0  0  0  0  0  0
   -0.9533    1.2687    0.6925 C   0  0  0  0  0  0  0  0  0  0  0  0
    8.8219   -1.2369    1.0338 H   0  0  0  0  0  0  0  0  0  0  0  0
    9.1107   -0.5572   -0.6052 H   0  0  0  0  0  0  0  0  0  0  0  0
    7.9712   -3.0020   -0.8229 H   0  0  0  0  0  0  0  0  0  0  0  0
    5.4510   -2.3715   -1.0047 H   0  0  0  0  0  0  0  0  0  0  0  0
    7.9573    1.9813    1.2538 H   0  0  0  0  0  0  0  0  0  0  0  0
    3.7477   -0.7265   -2.2495 H   0  0  0  0  0  0  0  0  0  0  0  0
    1.1117   -0.8344   -2.3051 H   0  0  0  0  0  0  0  0  0  0  0  0
   -2.9758   -1.5859   -0.8720 H   0  0  0  0  0  0  0  0  0  0  0  0
   -4.6826   -0.0569    2.6714 H   0  0  0  0  0  0  0  0  0  0  0  0
   -7.0891   -0.2593    2.9953 H   0  0  0  0  0  0  0  0  0  0  0  0
   -8.7295   -0.2480    1.0922 H   0  0  0  0  0  0  0  0  0  0  0  0
   -8.8440   -0.0401   -1.6267 H   0  0  0  0  0  0  0  0  0  0  0  0
   -4.3739    0.4148   -2.3456 H   0  0  0  0  0  0  0  0  0  0  0  0
  1  2  1  0
  2  3  2  0
  3  4  1  0
  4  5  1  0
  5  6  2  0
  6  7  1  0
  7  8  1  0
  8  9  1  0
  9 10  2  0
 10 11  1  0
 11 12  2  0
 12 13  1  0
 12 14  1  0
 14 15  2  0
 15 16  1  0
 16 17  2  0
 17 18  1  0
 18 19  2  0
 19 20  1  0
 20 21  2  0
 21 22  1  0
 22 23  2  0
 23 24  1  0
 24 25  1  0
 25 26  2  0
 17 27  1  0
 27 28  2  0
 28 29  1  0
 29 30  1  0
 30 31  2  0
  5  1  1  0
 13  9  1  0
 31 14  1  0
  8  4  2  0
 26 18  1  0
 31 27  1  0
 26 22  1  0
  1 32  1  0
  1 33  1  0
  2 34  1  0
  3 35  1  0
  6 36  1  0
 10 37  1  0
 11 38  1  0
 16 39  1  0
 19 40  1  0
 20 41  1  0
 21 42  1  0
 23 43  1  0
 25 44  1  0
M  END
