
     RDKit          3D

 45 51  0  0  0  0  0  0  0  0999 V2000
   -8.3172   -0.2390    0.0456 C   0  0  0  0  0  0  0  0  0  0  0  0
   -7.5515   -1.2297   -0.8336 C   0  0  0  0  0  0  0  0  0  0  0  0
   -6.2164   -1.0274   -0.7555 C   0  0  0  0  0  0  0  0  0  0  0  0
   -5.9515    0.0517    0.1296 C   0  0  0  0  0  0  0  0  0  0  0  0
   -7.1867    0.5456    0.6178 C   0  0  0  0  0  0  0  0  0  0  0  0
   -7.0308    1.6034    1.4688 C   0  0  0  0  0  0  0  0  0  0  0  0
   -5.3571    1.9829    1.6525 S   0  0  0  0  0  0  0  0  0  0  0  0
   -4.8414    0.7086    0.5878 C   0  0  0  0  0  0  0  0  0  0  0  0
   -3.4245    0.5168    0.3373 C   0  0  0  0  0  0  0  0  0  0  0  0
   -2.6584    1.6173    0.0592 N   0  0  0  0  0  0  0  0  0  0  0  0
   -1.3171    1.4989   -0.1912 C   0  0  0  0  0  0  0  0  0  0  0  0
   -0.5473    0.3305   -0.1987 C   0  0  0  0  0  0  0  0  0  0  0  0
    0.8813    0.2736   -0.4690 C   0  0  0  0  0  0  0  0  0  0  0  0
    2.1279    1.3741    0.4615 Si  0  0  0  0  0  4  0  0  0  0  0  0
    3.4804    0.5505   -0.5415 C   0  0  0  0  0  0  0  0  0  0  0  0
    2.9766   -0.3794   -1.3773 C   0  0  0  0  0  0  0  0  0  0  0  0
    1.5287   -0.5334   -1.3371 C   0  0  0  0  0  0  0  0  0  0  0  0
    4.8589    0.8307   -0.3960 C   0  0  0  0  0  0  0  0  0  0  0  0
    5.4646    2.4476   -0.6576 S   0  0  0  0  0  0  0  0  0  0  0  0
    7.1002    2.0070   -0.3458 C   0  0  0  0  0  0  0  0  0  0  0  0
    7.1630    0.6802   -0.0598 C   0  0  0  0  0  0  0  0  0  0  0  0
    8.5199   -0.5476    0.3796 Si  0  0  0  0  0  4  0  0  0  0  0  0
    7.1759   -1.9010    0.4939 C   0  0  0  0  0  0  0  0  0  0  0  0
    5.9492   -1.4021    0.2246 C   0  0  0  0  0  0  0  0  0  0  0  0
    5.9155    0.0001   -0.0839 C   0  0  0  0  0  0  0  0  0  0  0  0
   -1.3036   -0.8380    0.0884 C   0  0  0  0  0  0  0  0  0  0  0  0
   -0.8409   -2.1006    0.1621 N   0  0  0  0  0  0  0  0  0  0  0  0
   -2.1239   -3.0706    0.5469 S   0  0  0  0  0  0  0  0  0  0  0  0
   -3.3391   -1.9521    0.6329 N   0  0  0  0  0  0  0  0  0  0  0  0
   -2.7913   -0.7509    0.3671 C   0  0  0  0  0  0  0  0  0  0  0  0
   -8.9812    0.3851   -0.5588 H   0  0  0  0  0  0  0  0  0  0  0  0
   -8.8829   -0.7630    0.8208 H   0  0  0  0  0  0  0  0  0  0  0  0
   -8.0313   -1.9887   -1.4332 H   0  0  0  0  0  0  0  0  0  0  0  0
   -5.4636   -1.5977   -1.2811 H   0  0  0  0  0  0  0  0  0  0  0  0
   -7.7846    2.1792    1.9869 H   0  0  0  0  0  0  0  0  0  0  0  0
   -0.8503    2.4585   -0.4174 H   0  0  0  0  0  0  0  0  0  0  0  0
    2.1579    1.0441    1.9094 H   0  0  0  0  0  0  0  0  0  0  0  0
    1.8934    2.8030    0.1269 H   0  0  0  0  0  0  0  0  0  0  0  0
    3.5743   -0.9899   -2.0442 H   0  0  0  0  0  0  0  0  0  0  0  0
    1.0416   -1.2644   -1.9725 H   0  0  0  0  0  0  0  0  0  0  0  0
    7.8899    2.7443   -0.3955 H   0  0  0  0  0  0  0  0  0  0  0  0
    9.4653   -0.8280   -0.7295 H   0  0  0  0  0  0  0  0  0  0  0  0
    9.1476   -0.3071    1.7028 H   0  0  0  0  0  0  0  0  0  0  0  0
    7.4310   -2.9164    0.7504 H   0  0  0  0  0  0  0  0  0  0  0  0
    5.0497   -2.0070    0.2431 H   0  0  0  0  0  0  0  0  0  0  0  0
  1  2  1  0
  2  3  2  0
  3  4  1  0
  4  5  1  0
  5  6  2  0
  6  7  1  0
  7  8  1  0
  8  9  1  0
  9 10  2  0
 10 11  1  0
 11 12  2  0
 12 13  1  0
 13 14  1  0
 14 15  1  0
 15 16  2  0
 16 17  1  0
 15 18  1  0
 18 19  1  0
 19 20  1  0
 20 21  2  0
 21 22  1  0
 22 23  1  0
 23 24  2  0
 24 25  1  0
 12 26  1  0
 26 27  2  0
 27 28  1  0
 28 29  1  0
 29 30  2  0
  5  1  1  0
 30  9  1  0
  8  4  2  0
 17 13  2  0
 25 18  2  0
 30 26  1  0
 25 21  1  0
  1 31  1  0
  1 32  1  0
  2 33  1  0
  3 34  1  0
  6 35  1  0
 11 36  1  0
 14 37  1  0
 14 38  1  0
 16 39  1  0
 17 40  1  0
 20 41  1  0
 22 42  1  0
 22 43  1  0
 23 44  1  0
 24 45  1  0
M  END
