
     RDKit          3D

 40 45  0  0  0  0  0  0  0  0999 V2000
   -7.2095    0.8951   -0.5328 C   0  0  0  0  0  0  0  0  0  0  0  0
   -6.1608    1.9052   -1.0061 C   0  0  0  0  0  0  0  0  0  0  0  0
   -4.9074    1.4202   -0.8535 C   0  0  0  0  0  0  0  0  0  0  0  0
   -4.9710    0.1147   -0.2984 C   0  0  0  0  0  0  0  0  0  0  0  0
   -6.3297   -0.2250   -0.0936 C   0  0  0  0  0  0  0  0  0  0  0  0
   -6.4798   -1.4695    0.4499 C   0  0  0  0  0  0  0  0  0  0  0  0
   -4.9365   -2.1989    0.7103 S   0  0  0  0  0  0  0  0  0  0  0  0
   -4.0635   -0.8470    0.0570 C   0  0  0  0  0  0  0  0  0  0  0  0
   -2.6105   -0.8287    0.0049 C   0  0  0  0  0  0  0  0  0  0  0  0
   -1.9897    0.3504    0.3105 N   0  0  0  0  0  0  0  0  0  0  0  0
   -0.6211    0.4541    0.2814 C   0  0  0  0  0  0  0  0  0  0  0  0
    0.3268   -0.5321   -0.0342 C   0  0  0  0  0  0  0  0  0  0  0  0
    1.7680   -0.2845   -0.0220 C   0  0  0  0  0  0  0  0  0  0  0  0
    2.7327   -1.2533    0.2450 C   0  0  0  0  0  0  0  0  0  0  0  0
    4.0874   -0.9032    0.2432 C   0  0  0  0  0  0  0  0  0  0  0  0
    4.4751    0.4108   -0.0172 C   0  0  0  0  0  0  0  0  0  0  0  0
    3.4475    1.3146   -0.2597 C   0  0  0  0  0  0  0  0  0  0  0  0
    2.1238    1.0027   -0.2613 N   0  0  0  0  0  0  0  0  0  0  0  0
    5.8764    0.8076   -0.0288 C   0  0  0  0  0  0  0  0  0  0  0  0
    7.0744    0.1430    0.1563 C   0  0  0  0  0  0  0  0  0  0  0  0
    8.1036    1.1068    0.0177 C   0  0  0  0  0  0  0  0  0  0  0  0
    7.4750    2.2999   -0.2431 C   0  0  0  0  0  0  0  0  0  0  0  0
    6.1291    2.1296   -0.2731 O   0  0  0  0  0  0  0  0  0  0  0  0
   -0.2858   -1.7627   -0.3935 C   0  0  0  0  0  0  0  0  0  0  0  0
    0.3402   -2.8891   -0.7868 N   0  0  0  0  0  0  0  0  0  0  0  0
   -0.8231   -4.0166   -1.1160 S   0  0  0  0  0  0  0  0  0  0  0  0
   -2.1872   -3.1532   -0.7741 N   0  0  0  0  0  0  0  0  0  0  0  0
   -1.7983   -1.9257   -0.3803 C   0  0  0  0  0  0  0  0  0  0  0  0
   -7.7950    1.3020    0.2963 H   0  0  0  0  0  0  0  0  0  0  0  0
   -7.8646    0.5995   -1.3569 H   0  0  0  0  0  0  0  0  0  0  0  0
   -6.4061    2.8790   -1.4026 H   0  0  0  0  0  0  0  0  0  0  0  0
   -3.9904    1.9366   -1.1020 H   0  0  0  0  0  0  0  0  0  0  0  0
   -7.3870   -1.9923    0.7180 H   0  0  0  0  0  0  0  0  0  0  0  0
   -0.2731    1.4538    0.5523 H   0  0  0  0  0  0  0  0  0  0  0  0
    2.4592   -2.2799    0.4671 H   0  0  0  0  0  0  0  0  0  0  0  0
    4.8248   -1.6740    0.4503 H   0  0  0  0  0  0  0  0  0  0  0  0
    3.6560    2.3614   -0.4689 H   0  0  0  0  0  0  0  0  0  0  0  0
    7.1971   -0.9101    0.3655 H   0  0  0  0  0  0  0  0  0  0  0  0
    9.1703    0.9510    0.0975 H   0  0  0  0  0  0  0  0  0  0  0  0
    7.8229    3.3078   -0.4224 H   0  0  0  0  0  0  0  0  0  0  0  0
  1  2  1  0
  2  3  2  0
  3  4  1  0
  4  5  1  0
  5  6  2  0
  6  7  1  0
  7  8  1  0
  8  9  1  0
  9 10  2  0
 10 11  1  0
 11 12  2  0
 12 13  1  0
 13 14  2  0
 14 15  1  0
 15 16  2  0
 16 17  1  0
 17 18  2  0
 16 19  1  0
 19 20  2  0
 20 21  1  0
 21 22  2  0
 22 23  1  0
 12 24  1  0
 24 25  2  0
 25 26  1  0
 26 27  1  0
 27 28  2  0
  5  1  1  0
 28  9  1  0
  8  4  2  0
 18 13  1  0
 23 19  1  0
 28 24  1  0
  1 29  1  0
  1 30  1  0
  2 31  1  0
  3 32  1  0
  6 33  1  0
 11 34  1  0
 14 35  1  0
 15 36  1  0
 17 37  1  0
 20 38  1  0
 21 39  1  0
 22 40  1  0
M  END
