
     RDKit          3D

 48 54  0  0  0  0  0  0  0  0999 V2000
   -7.0206   -0.9798    1.0565 C   0  0  0  0  0  0  0  0  0  0  0  0
   -5.9278   -1.5290    1.9771 C   0  0  0  0  0  0  0  0  0  0  0  0
   -4.7166   -1.0143    1.6645 C   0  0  0  0  0  0  0  0  0  0  0  0
   -4.8510   -0.1201    0.5683 C   0  0  0  0  0  0  0  0  0  0  0  0
   -6.2145   -0.0769    0.1854 C   0  0  0  0  0  0  0  0  0  0  0  0
   -6.4379    0.7635   -0.8691 C   0  0  0  0  0  0  0  0  0  0  0  0
   -4.9590    1.4989   -1.3719 S   0  0  0  0  0  0  0  0  0  0  0  0
   -4.0186    0.6798   -0.1662 C   0  0  0  0  0  0  0  0  0  0  0  0
   -2.5992    0.8728   -0.0578 C   0  0  0  0  0  0  0  0  0  0  0  0
   -1.5111   -0.4742   -0.0181 S   0  0  0  0  0  0  0  0  0  0  0  0
   -0.1065    0.5239    0.1006 C   0  0  0  0  0  0  0  0  0  0  0  0
    1.2176   -0.0996    0.1818 C   0  0  0  0  0  0  0  0  0  0  0  0
    1.6807   -0.4637    1.4525 C   0  0  0  0  0  0  0  0  0  0  0  0
    2.9377   -1.0351    1.6071 C   0  0  0  0  0  0  0  0  0  0  0  0
    3.7648   -1.2509    0.4949 C   0  0  0  0  0  0  0  0  0  0  0  0
    5.0860   -1.8510    0.7231 C   0  0  0  0  0  0  0  0  0  0  0  0
    5.4550   -3.0514    0.3212 N   0  0  0  0  0  0  0  0  0  0  0  0
    6.7632   -3.2887    0.6928 C   0  0  0  0  0  0  0  0  0  0  0  0
    7.3867   -2.2607    1.3665 C   0  0  0  0  0  0  0  0  0  0  0  0
    6.3007   -0.9464    1.5527 S   0  0  0  0  0  0  0  0  0  0  0  0
    3.3157   -0.8990   -0.8099 C   0  0  0  0  0  0  0  0  0  0  0  0
    4.1039   -1.1005   -1.9703 C   0  0  0  0  0  0  0  0  0  0  0  0
    3.6591   -0.7396   -3.2422 C   0  0  0  0  0  0  0  0  0  0  0  0
    2.4089   -0.1653   -3.3935 C   0  0  0  0  0  0  0  0  0  0  0  0
    1.6069    0.0444   -2.2725 C   0  0  0  0  0  0  0  0  0  0  0  0
    2.0290   -0.3106   -0.9671 C   0  0  0  0  0  0  0  0  0  0  0  0
   -0.4640    1.8486    0.1158 C   0  0  0  0  0  0  0  0  0  0  0  0
    0.3379    3.0321    0.2128 C   0  0  0  0  0  0  0  0  0  0  0  0
   -0.3557    4.1904    0.2158 C   0  0  0  0  0  0  0  0  0  0  0  0
   -2.2380    3.8739    0.0817 Si  0  0  0  0  0  4  0  0  0  0  0  0
   -1.8730    2.0259    0.0231 C   0  0  0  0  0  0  0  0  0  0  0  0
   -7.7716   -0.4271    1.6300 H   0  0  0  0  0  0  0  0  0  0  0  0
   -7.4890   -1.7850    0.4839 H   0  0  0  0  0  0  0  0  0  0  0  0
   -6.1161   -2.2391    2.7680 H   0  0  0  0  0  0  0  0  0  0  0  0
   -3.7855   -1.2446    2.1634 H   0  0  0  0  0  0  0  0  0  0  0  0
   -7.3654    0.9917   -1.3751 H   0  0  0  0  0  0  0  0  0  0  0  0
    1.0582   -0.3009    2.3299 H   0  0  0  0  0  0  0  0  0  0  0  0
    3.2698   -1.3184    2.6038 H   0  0  0  0  0  0  0  0  0  0  0  0
    7.2195   -4.2389    0.4410 H   0  0  0  0  0  0  0  0  0  0  0  0
    8.3967   -2.2192    1.7468 H   0  0  0  0  0  0  0  0  0  0  0  0
    5.0892   -1.5584   -1.8963 H   0  0  0  0  0  0  0  0  0  0  0  0
    4.2910   -0.9139   -4.1086 H   0  0  0  0  0  0  0  0  0  0  0  0
    2.0496    0.1168   -4.3795 H   0  0  0  0  0  0  0  0  0  0  0  0
    0.6284    0.4937   -2.4341 H   0  0  0  0  0  0  0  0  0  0  0  0
    1.4195    2.9879    0.2766 H   0  0  0  0  0  0  0  0  0  0  0  0
    0.0346    5.1928    0.2784 H   0  0  0  0  0  0  0  0  0  0  0  0
   -2.9248    4.3221    1.3179 H   0  0  0  0  0  0  0  0  0  0  0  0
   -2.7642    4.4431   -1.1828 H   0  0  0  0  0  0  0  0  0  0  0  0
  1  2  1  0
  2  3  2  0
  3  4  1  0
  4  5  1  0
  5  6  2  0
  6  7  1  0
  7  8  1  0
  8  9  1  0
  9 10  1  0
 10 11  1  0
 11 12  1  0
 12 13  2  0
 13 14  1  0
 14 15  2  0
 15 16  1  0
 16 17  2  0
 17 18  1  0
 18 19  2  0
 19 20  1  0
 15 21  1  0
 21 22  2  0
 22 23  1  0
 23 24  2  0
 24 25  1  0
 25 26  2  0
 11 27  2  0
 27 28  1  0
 28 29  2  0
 29 30  1  0
 30 31  1  0
  5  1  1  0
 31  9  2  0
  8  4  2  0
 26 12  1  0
 31 27  1  0
 20 16  1  0
 26 21  1  0
  1 32  1  0
  1 33  1  0
  2 34  1  0
  3 35  1  0
  6 36  1  0
 13 37  1  0
 14 38  1  0
 18 39  1  0
 19 40  1  0
 22 41  1  0
 23 42  1  0
 24 43  1  0
 25 44  1  0
 28 45  1  0
 29 46  1  0
 30 47  1  0
 30 48  1  0
M  END
