
     RDKit          3D

 41 47  0  0  0  0  0  0  0  0999 V2000
    7.1990    1.1524    0.8861 C   0  0  0  0  0  0  0  0  0  0  0  0
    6.2523    2.2057    0.3035 C   0  0  0  0  0  0  0  0  0  0  0  0
    5.0095    1.7040    0.1205 C   0  0  0  0  0  0  0  0  0  0  0  0
    4.9855    0.3443    0.5297 C   0  0  0  0  0  0  0  0  0  0  0  0
    6.2744   -0.0116    0.9963 C   0  0  0  0  0  0  0  0  0  0  0  0
    6.3367   -1.3076    1.4271 C   0  0  0  0  0  0  0  0  0  0  0  0
    4.7975   -2.0733    1.2510 S   0  0  0  0  0  0  0  0  0  0  0  0
    4.0531   -0.6540    0.5911 C   0  0  0  0  0  0  0  0  0  0  0  0
    2.6792   -0.6334    0.1832 C   0  0  0  0  0  0  0  0  0  0  0  0
    1.3923   -1.0872    1.2342 S   0  0  0  0  0  0  0  0  0  0  0  0
    0.1687   -0.7470    0.0649 C   0  0  0  0  0  0  0  0  0  0  0  0
   -1.2241   -0.9234    0.3510 C   0  0  0  0  0  0  0  0  0  0  0  0
   -1.6779   -1.9841    0.9879 N   0  0  0  0  0  0  0  0  0  0  0  0
   -3.0467   -1.8860    1.1431 C   0  0  0  0  0  0  0  0  0  0  0  0
   -3.6305   -0.7393    0.6426 C   0  0  0  0  0  0  0  0  0  0  0  0
   -2.4100    0.2632   -0.0261 S   0  0  0  0  0  0  0  0  0  0  0  0
   -5.0199   -0.3174    0.6765 C   0  0  0  0  0  0  0  0  0  0  0  0
   -5.7323   -0.1671    1.8872 C   0  0  0  0  0  0  0  0  0  0  0  0
   -7.0879    0.2334    1.9450 C   0  0  0  0  0  0  0  0  0  0  0  0
   -7.8539    0.5115    0.8004 C   0  0  0  0  0  0  0  0  0  0  0  0
   -7.1981    0.3650   -0.4459 C   0  0  0  0  0  0  0  0  0  0  0  0
   -7.7555    0.5739   -1.6483 N   0  0  0  0  0  0  0  0  0  0  0  0
   -6.5776    0.2550   -2.7733 S   0  0  0  0  0  0  0  0  0  0  0  0
   -5.3113   -0.1647   -1.7893 N   0  0  0  0  0  0  0  0  0  0  0  0
   -5.7484   -0.0621   -0.5212 C   0  0  0  0  0  0  0  0  0  0  0  0
    0.7380   -0.3306   -1.1103 C   0  0  0  0  0  0  0  0  0  0  0  0
    0.0355    0.1227   -2.7195 S   0  0  0  0  0  0  0  0  0  0  0  0
    1.6976    0.3860   -3.2147 C   0  0  0  0  0  0  0  0  0  0  0  0
    2.6773    0.1440   -2.2475 C   0  0  0  0  0  0  0  0  0  0  0  0
    2.1311   -0.2733   -1.0038 C   0  0  0  0  0  0  0  0  0  0  0  0
    7.5763    1.4666    1.8631 H   0  0  0  0  0  0  0  0  0  0  0  0
    8.0269    0.9517    0.2006 H   0  0  0  0  0  0  0  0  0  0  0  0
    6.5537    3.2185    0.0811 H   0  0  0  0  0  0  0  0  0  0  0  0
    4.1596    2.2485   -0.2667 H   0  0  0  0  0  0  0  0  0  0  0  0
    7.1769   -1.8525    1.8341 H   0  0  0  0  0  0  0  0  0  0  0  0
   -3.5758   -2.6924    1.6368 H   0  0  0  0  0  0  0  0  0  0  0  0
   -5.2163   -0.3559    2.8302 H   0  0  0  0  0  0  0  0  0  0  0  0
   -7.5600    0.3323    2.9233 H   0  0  0  0  0  0  0  0  0  0  0  0
   -8.8918    0.8175    0.8598 H   0  0  0  0  0  0  0  0  0  0  0  0
    1.8620    0.7083   -4.2341 H   0  0  0  0  0  0  0  0  0  0  0  0
    3.7349    0.2586   -2.4539 H   0  0  0  0  0  0  0  0  0  0  0  0
  1  2  1  0
  2  3  2  0
  3  4  1  0
  4  5  1  0
  5  6  2  0
  6  7  1  0
  7  8  1  0
  8  9  1  0
  9 10  1  0
 10 11  1  0
 11 12  1  0
 12 13  2  0
 13 14  1  0
 14 15  2  0
 15 16  1  0
 15 17  1  0
 17 18  2  0
 18 19  1  0
 19 20  2  0
 20 21  1  0
 21 22  2  0
 22 23  1  0
 23 24  1  0
 24 25  2  0
 11 26  2  0
 26 27  1  0
 27 28  1  0
 28 29  2  0
 29 30  1  0
  5  1  1  0
 30  9  2  0
  8  4  2  0
 16 12  1  0
 25 17  1  0
 30 26  1  0
 25 21  1  0
  1 31  1  0
  1 32  1  0
  2 33  1  0
  3 34  1  0
  6 35  1  0
 14 36  1  0
 18 37  1  0
 19 38  1  0
 20 39  1  0
 28 40  1  0
 29 41  1  0
M  END
