
     RDKit          3D

 42 48  0  0  0  0  0  0  0  0999 V2000
   -6.9062   -0.8418    0.5811 C   0  0  0  0  0  0  0  0  0  0  0  0
   -6.2135   -1.4074   -0.6608 C   0  0  0  0  0  0  0  0  0  0  0  0
   -4.9132   -1.0385   -0.7094 C   0  0  0  0  0  0  0  0  0  0  0  0
   -4.6062   -0.2360    0.4215 C   0  0  0  0  0  0  0  0  0  0  0  0
   -5.7748   -0.1037    1.2113 C   0  0  0  0  0  0  0  0  0  0  0  0
   -5.5691    0.6524    2.3311 C   0  0  0  0  0  0  0  0  0  0  0  0
   -3.9297    1.1907    2.3982 S   0  0  0  0  0  0  0  0  0  0  0  0
   -3.4977    0.3963    0.9149 C   0  0  0  0  0  0  0  0  0  0  0  0
   -2.1659    0.4645    0.3710 C   0  0  0  0  0  0  0  0  0  0  0  0
   -0.7890    0.1218    1.3479 S   0  0  0  0  0  0  0  0  0  0  0  0
    0.3213    0.3799    0.0625 C   0  0  0  0  0  0  0  0  0  0  0  0
    1.7326    0.2200    0.2726 C   0  0  0  0  0  0  0  0  0  0  0  0
    2.6729   -0.8843   -0.6582 S   0  0  0  0  0  0  0  0  0  0  0  0
    4.1382   -0.5103    0.1719 C   0  0  0  0  0  0  0  0  0  0  0  0
    5.3954   -1.1402   -0.1201 C   0  0  0  0  0  0  0  0  0  0  0  0
    6.2786   -1.7080    0.7801 C   0  0  0  0  0  0  0  0  0  0  0  0
    7.4418   -2.2397    0.1493 C   0  0  0  0  0  0  0  0  0  0  0  0
    7.4120   -2.0627   -1.2148 C   0  0  0  0  0  0  0  0  0  0  0  0
    5.9907   -1.2631   -1.7260 S   0  0  0  0  0  0  0  0  0  0  0  0
    3.9081    0.4391    1.1341 C   0  0  0  0  0  0  0  0  0  0  0  0
    5.0073    1.2650    2.3156 S   0  0  0  0  0  0  0  0  0  0  0  0
    3.5695    2.1282    2.8321 C   0  0  0  0  0  0  0  0  0  0  0  0
    2.3832    1.8131    2.1624 C   0  0  0  0  0  0  0  0  0  0  0  0
    2.5628    0.8184    1.1628 C   0  0  0  0  0  0  0  0  0  0  0  0
   -0.3433    0.7228   -1.0945 C   0  0  0  0  0  0  0  0  0  0  0  0
    0.2847    1.0046   -2.2747 N   0  0  0  0  0  0  0  0  0  0  0  0
   -0.6094    1.3217   -3.2467 C   0  0  0  0  0  0  0  0  0  0  0  0
   -1.9961    1.3626   -3.0792 C   0  0  0  0  0  0  0  0  0  0  0  0
   -2.6517    1.0911   -1.9203 N   0  0  0  0  0  0  0  0  0  0  0  0
   -1.7798    0.7669   -0.9185 C   0  0  0  0  0  0  0  0  0  0  0  0
   -7.2739   -1.6476    1.2223 H   0  0  0  0  0  0  0  0  0  0  0  0
   -7.7231   -0.1716    0.2998 H   0  0  0  0  0  0  0  0  0  0  0  0
   -6.7146   -2.0168   -1.3978 H   0  0  0  0  0  0  0  0  0  0  0  0
   -4.2100   -1.3005   -1.4875 H   0  0  0  0  0  0  0  0  0  0  0  0
   -6.2686    0.9224    3.1096 H   0  0  0  0  0  0  0  0  0  0  0  0
    6.1005   -1.7489    1.8481 H   0  0  0  0  0  0  0  0  0  0  0  0
    8.2563   -2.7270    0.6710 H   0  0  0  0  0  0  0  0  0  0  0  0
    8.1556   -2.3647   -1.9394 H   0  0  0  0  0  0  0  0  0  0  0  0
    3.6887    2.8507    3.6282 H   0  0  0  0  0  0  0  0  0  0  0  0
    1.4427    2.2963    2.3985 H   0  0  0  0  0  0  0  0  0  0  0  0
   -0.1691    1.5552   -4.2122 H   0  0  0  0  0  0  0  0  0  0  0  0
   -2.6381    1.6291   -3.9142 H   0  0  0  0  0  0  0  0  0  0  0  0
  1  2  1  0
  2  3  2  0
  3  4  1  0
  4  5  1  0
  5  6  2  0
  6  7  1  0
  7  8  1  0
  8  9  1  0
  9 10  1  0
 10 11  1  0
 11 12  1  0
 12 13  1  0
 13 14  1  0
 14 15  1  0
 15 16  2  0
 16 17  1  0
 17 18  2  0
 18 19  1  0
 14 20  2  0
 20 21  1  0
 21 22  1  0
 22 23  2  0
 23 24  1  0
 11 25  2  0
 25 26  1  0
 26 27  2  0
 27 28  1  0
 28 29  2  0
 29 30  1  0
  5  1  1  0
 30  9  2  0
  8  4  2  0
 24 12  2  0
 30 25  1  0
 19 15  1  0
 24 20  1  0
  1 31  1  0
  1 32  1  0
  2 33  1  0
  3 34  1  0
  6 35  1  0
 16 36  1  0
 17 37  1  0
 18 38  1  0
 22 39  1  0
 23 40  1  0
 27 41  1  0
 28 42  1  0
M  END
