
     RDKit          3D

 46 52  0  0  0  0  0  0  0  0999 V2000
   -5.5763    1.1174   -1.1040 C   0  0  0  0  0  0  0  0  0  0  0  0
   -7.1099    1.1142   -1.1349 C   0  0  0  0  0  0  0  0  0  0  0  0
   -7.6240    0.5314   -0.0272 C   0  0  0  0  0  0  0  0  0  0  0  0
   -6.5627    0.1089    0.8101 C   0  0  0  0  0  0  0  0  0  0  0  0
   -6.4532   -0.5157    2.0143 C   0  0  0  0  0  0  0  0  0  0  0  0
   -4.7800   -0.6972    2.4142 S   0  0  0  0  0  0  0  0  0  0  0  0
   -4.2494    0.0581    0.9497 C   0  0  0  0  0  0  0  0  0  0  0  0
   -5.3313    0.4418    0.2016 C   0  0  0  0  0  0  0  0  0  0  0  0
   -2.8385    0.2319    0.6874 C   0  0  0  0  0  0  0  0  0  0  0  0
   -2.1665    1.4747    0.7599 C   0  0  0  0  0  0  0  0  0  0  0  0
   -0.7684    1.6453    0.4732 C   0  0  0  0  0  0  0  0  0  0  0  0
    0.0977    0.5929    0.0846 C   0  0  0  0  0  0  0  0  0  0  0  0
    1.5113    0.7718   -0.1809 C   0  0  0  0  0  0  0  0  0  0  0  0
    2.1804    1.7762   -0.8554 C   0  0  0  0  0  0  0  0  0  0  0  0
    3.5677    1.4913   -0.8021 C   0  0  0  0  0  0  0  0  0  0  0  0
    3.7355    0.3276   -0.0769 C   0  0  0  0  0  0  0  0  0  0  0  0
    2.4777   -0.0802    0.3034 N   0  0  0  0  0  0  0  0  0  0  0  0
    4.9221   -0.3905    0.2748 C   0  0  0  0  0  0  0  0  0  0  0  0
    4.9336   -1.8689    1.1946 S   0  0  0  0  0  0  0  0  0  0  0  0
    6.6659   -2.0205    1.1496 C   0  0  0  0  0  0  0  0  0  0  0  0
    7.1483   -0.9698    0.4547 C   0  0  0  0  0  0  0  0  0  0  0  0
    8.3724   -0.4373    0.0235 C   0  0  0  0  0  0  0  0  0  0  0  0
    8.0313    0.7271   -0.6755 C   0  0  0  0  0  0  0  0  0  0  0  0
    6.6736    0.9828   -0.7252 O   0  0  0  0  0  0  0  0  0  0  0  0
    6.2064   -0.0873   -0.0194 C   0  0  0  0  0  0  0  0  0  0  0  0
   -0.5858   -0.6289   -0.0057 C   0  0  0  0  0  0  0  0  0  0  0  0
   -0.1036   -1.8495   -0.4176 C   0  0  0  0  0  0  0  0  0  0  0  0
   -1.1502   -2.7461   -0.3670 N   0  0  0  0  0  0  0  0  0  0  0  0
   -2.2998   -2.1146    0.0516 C   0  0  0  0  0  0  0  0  0  0  0  0
   -1.9822   -0.7975    0.2808 C   0  0  0  0  0  0  0  0  0  0  0  0
   -5.1902    2.1403   -1.1132 H   0  0  0  0  0  0  0  0  0  0  0  0
   -5.1698    0.5449   -1.9424 H   0  0  0  0  0  0  0  0  0  0  0  0
   -7.6883    1.5292   -1.9467 H   0  0  0  0  0  0  0  0  0  0  0  0
   -8.6743    0.4037    0.1929 H   0  0  0  0  0  0  0  0  0  0  0  0
   -7.2253   -0.8710    2.6814 H   0  0  0  0  0  0  0  0  0  0  0  0
   -2.7334    2.3574    1.0573 H   0  0  0  0  0  0  0  0  0  0  0  0
   -0.3542    2.6488    0.5775 H   0  0  0  0  0  0  0  0  0  0  0  0
    1.7176    2.6214   -1.3483 H   0  0  0  0  0  0  0  0  0  0  0  0
    4.3584    2.0822   -1.2467 H   0  0  0  0  0  0  0  0  0  0  0  0
    2.2877   -0.8942    0.8712 H   0  0  0  0  0  0  0  0  0  0  0  0
    7.1741   -2.8471    1.6249 H   0  0  0  0  0  0  0  0  0  0  0  0
    9.3723   -0.8157    0.1790 H   0  0  0  0  0  0  0  0  0  0  0  0
    8.6333    1.4676   -1.1859 H   0  0  0  0  0  0  0  0  0  0  0  0
    0.8681   -2.1723   -0.7645 H   0  0  0  0  0  0  0  0  0  0  0  0
   -1.0889   -3.7229   -0.6237 H   0  0  0  0  0  0  0  0  0  0  0  0
   -3.2295   -2.6618    0.1341 H   0  0  0  0  0  0  0  0  0  0  0  0
  1  2  1  0
  2  3  2  0
  3  4  1  0
  4  5  2  0
  5  6  1  0
  6  7  1  0
  7  8  2  0
  7  9  1  0
  9 10  2  0
 10 11  1  0
 11 12  2  0
 12 13  1  0
 13 14  2  0
 14 15  1  0
 15 16  2  0
 16 17  1  0
 16 18  1  0
 18 19  1  0
 19 20  1  0
 20 21  2  0
 21 22  1  0
 22 23  2  0
 23 24  1  0
 24 25  1  0
 12 26  1  0
 26 27  2  0
 27 28  1  0
 28 29  1  0
 29 30  2  0
  8  1  1  0
 30  9  1  0
  8  4  1  0
 17 13  1  0
 25 18  2  0
 30 26  1  0
 25 21  1  0
  1 31  1  0
  1 32  1  0
  2 33  1  0
  3 34  1  0
  5 35  1  0
 10 36  1  0
 11 37  1  0
 14 38  1  0
 15 39  1  0
 17 40  1  0
 20 41  1  0
 22 42  1  0
 23 43  1  0
 27 44  1  0
 28 45  1  0
 29 46  1  0
M  END
