
     RDKit          3D

 43 48  0  0  0  0  0  0  0  0999 V2000
   -5.1385   -1.0865    1.5557 C   0  0  0  0  0  0  0  0  0  0  0  0
   -6.5826   -1.2018    2.0553 C   0  0  0  0  0  0  0  0  0  0  0  0
   -7.3938   -0.3236    1.4228 C   0  0  0  0  0  0  0  0  0  0  0  0
   -6.6325    0.4237    0.4914 C   0  0  0  0  0  0  0  0  0  0  0  0
   -6.8886    1.4106   -0.4089 C   0  0  0  0  0  0  0  0  0  0  0  0
   -5.4257    1.8327   -1.2232 S   0  0  0  0  0  0  0  0  0  0  0  0
   -4.4793    0.6705   -0.3460 C   0  0  0  0  0  0  0  0  0  0  0  0
   -5.2840    0.0006    0.5428 C   0  0  0  0  0  0  0  0  0  0  0  0
   -3.0453    0.5423   -0.5961 C   0  0  0  0  0  0  0  0  0  0  0  0
   -2.1309    0.5124    0.4571 C   0  0  0  0  0  0  0  0  0  0  0  0
   -0.7649    0.3761    0.1962 C   0  0  0  0  0  0  0  0  0  0  0  0
   -0.3319    0.2664   -1.1218 C   0  0  0  0  0  0  0  0  0  0  0  0
   -1.2002    0.2880   -2.1606 N   0  0  0  0  0  0  0  0  0  0  0  0
   -2.5204    0.4252   -1.8786 C   0  0  0  0  0  0  0  0  0  0  0  0
    1.0819    0.1207   -1.4669 C   0  0  0  0  0  0  0  0  0  0  0  0
    2.2016    0.0784   -0.4647 C   0  0  0  0  0  0  0  0  0  0  0  0
    3.4344   -0.0818   -1.3362 C   0  0  0  0  0  0  0  0  0  0  0  0
    3.0321   -0.1192   -2.6208 C   0  0  0  0  0  0  0  0  0  0  0  0
    1.5986    0.0043   -2.7010 C   0  0  0  0  0  0  0  0  0  0  0  0
    4.7925   -0.1793   -0.9167 C   0  0  0  0  0  0  0  0  0  0  0  0
    6.1481   -0.3721   -2.0184 S   0  0  0  0  0  0  0  0  0  0  0  0
    7.3410   -0.4024   -0.7633 C   0  0  0  0  0  0  0  0  0  0  0  0
    6.7007   -0.2705    0.4128 C   0  0  0  0  0  0  0  0  0  0  0  0
    7.2687   -0.2447    1.6527 N   0  0  0  0  0  0  0  0  0  0  0  0
    6.1448   -0.0916    2.4613 C   0  0  0  0  0  0  0  0  0  0  0  0
    4.9602   -0.0313    1.6962 C   0  0  0  0  0  0  0  0  0  0  0  0
    5.3324   -0.1510    0.3288 C   0  0  0  0  0  0  0  0  0  0  0  0
   -4.4709   -0.7986    2.3722 H   0  0  0  0  0  0  0  0  0  0  0  0
   -4.8082   -2.0247    1.1012 H   0  0  0  0  0  0  0  0  0  0  0  0
   -6.8952   -1.9020    2.8157 H   0  0  0  0  0  0  0  0  0  0  0  0
   -8.4549   -0.2054    1.5914 H   0  0  0  0  0  0  0  0  0  0  0  0
   -7.8198    1.9060   -0.6442 H   0  0  0  0  0  0  0  0  0  0  0  0
   -2.4673    0.6107    1.4859 H   0  0  0  0  0  0  0  0  0  0  0  0
   -0.0670    0.3619    1.0259 H   0  0  0  0  0  0  0  0  0  0  0  0
   -3.1632    0.4258   -2.7552 H   0  0  0  0  0  0  0  0  0  0  0  0
    2.0964   -0.7754    0.2136 H   0  0  0  0  0  0  0  0  0  0  0  0
    2.2555    1.0091    0.1109 H   0  0  0  0  0  0  0  0  0  0  0  0
    3.6469   -0.2241   -3.5024 H   0  0  0  0  0  0  0  0  0  0  0  0
    1.0420    0.0015   -3.6273 H   0  0  0  0  0  0  0  0  0  0  0  0
    8.3967   -0.5113   -0.9662 H   0  0  0  0  0  0  0  0  0  0  0  0
    8.2500   -0.3190    1.8913 H   0  0  0  0  0  0  0  0  0  0  0  0
    6.2755   -0.0360    3.5345 H   0  0  0  0  0  0  0  0  0  0  0  0
    3.9651    0.0855    2.1027 H   0  0  0  0  0  0  0  0  0  0  0  0
  1  2  1  0
  2  3  2  0
  3  4  1  0
  4  5  2  0
  5  6  1  0
  6  7  1  0
  7  8  2  0
  7  9  1  0
  9 10  2  0
 10 11  1  0
 11 12  2  0
 12 13  1  0
 13 14  2  0
 12 15  1  0
 15 16  1  0
 16 17  1  0
 17 18  2  0
 18 19  1  0
 17 20  1  0
 20 21  1  0
 21 22  1  0
 22 23  2  0
 23 24  1  0
 24 25  1  0
 25 26  2  0
 26 27  1  0
  8  1  1  0
 14  9  1  0
 19 15  2  0
 27 20  2  0
  8  4  1  0
 27 23  1  0
  1 28  1  0
  1 29  1  0
  2 30  1  0
  3 31  1  0
  5 32  1  0
 10 33  1  0
 11 34  1  0
 14 35  1  0
 16 36  1  0
 16 37  1  0
 18 38  1  0
 19 39  1  0
 22 40  1  0
 24 41  1  0
 25 42  1  0
 26 43  1  0
M  END
