
     RDKit          3D

 43 48  0  0  0  0  0  0  0  0999 V2000
    6.0459   -0.9913    0.3341 C   0  0  0  0  0  0  0  0  0  0  0  0
    7.5636   -0.7849    0.3415 C   0  0  0  0  0  0  0  0  0  0  0  0
    7.9262    0.2234   -0.4832 C   0  0  0  0  0  0  0  0  0  0  0  0
    6.7673    0.7681   -1.0879 C   0  0  0  0  0  0  0  0  0  0  0  0
    6.5119    1.7721   -1.9680 C   0  0  0  0  0  0  0  0  0  0  0  0
    4.8115    1.8718   -2.2375 S   0  0  0  0  0  0  0  0  0  0  0  0
    4.4503    0.5574   -1.1565 C   0  0  0  0  0  0  0  0  0  0  0  0
    5.6237    0.0716   -0.6283 C   0  0  0  0  0  0  0  0  0  0  0  0
    3.1066    0.0964   -0.9157 C   0  0  0  0  0  0  0  0  0  0  0  0
    2.6972   -1.1711   -0.5482 C   0  0  0  0  0  0  0  0  0  0  0  0
    1.3403   -1.3470   -0.3571 N   0  0  0  0  0  0  0  0  0  0  0  0
    0.6993   -0.2182   -0.5893 C   0  0  0  0  0  0  0  0  0  0  0  0
    1.7187    1.1013   -1.0295 S   0  0  0  0  0  0  0  0  0  0  0  0
   -0.7440   -0.0262   -0.4891 C   0  0  0  0  0  0  0  0  0  0  0  0
   -1.5251    0.8279   -1.3159 C   0  0  0  0  0  0  0  0  0  0  0  0
   -2.9489    0.9953   -1.1990 C   0  0  0  0  0  0  0  0  0  0  0  0
   -3.7477    0.3326   -0.2378 C   0  0  0  0  0  0  0  0  0  0  0  0
   -5.1785    0.5017   -0.1137 C   0  0  0  0  0  0  0  0  0  0  0  0
   -5.9682    1.4227    1.3311 Si  0  0  0  0  0  4  0  0  0  0  0  0
   -7.6302    1.1372    0.4851 C   0  0  0  0  0  0  0  0  0  0  0  0
   -7.4801    0.4612   -0.6688 C   0  0  0  0  0  0  0  0  0  0  0  0
   -6.1088    0.1158   -1.0111 C   0  0  0  0  0  0  0  0  0  0  0  0
   -2.9769   -0.5189    0.5632 C   0  0  0  0  0  0  0  0  0  0  0  0
   -3.4135   -1.3508    1.5669 C   0  0  0  0  0  0  0  0  0  0  0  0
   -2.3086   -1.9986    2.0730 N   0  0  0  0  0  0  0  0  0  0  0  0
   -1.1744   -1.5982    1.4038 C   0  0  0  0  0  0  0  0  0  0  0  0
   -1.5551   -0.6909    0.4434 C   0  0  0  0  0  0  0  0  0  0  0  0
    5.7995   -1.9929   -0.0287 H   0  0  0  0  0  0  0  0  0  0  0  0
    5.6264   -0.8278    1.3308 H   0  0  0  0  0  0  0  0  0  0  0  0
    8.2424   -1.3780    0.9363 H   0  0  0  0  0  0  0  0  0  0  0  0
    8.9356    0.5691   -0.6564 H   0  0  0  0  0  0  0  0  0  0  0  0
    7.1954    2.4472   -2.4626 H   0  0  0  0  0  0  0  0  0  0  0  0
    3.3487   -2.0239   -0.4082 H   0  0  0  0  0  0  0  0  0  0  0  0
   -1.0318    1.3941   -2.1072 H   0  0  0  0  0  0  0  0  0  0  0  0
   -3.4342    1.6800   -1.8964 H   0  0  0  0  0  0  0  0  0  0  0  0
   -5.6214    2.8660    1.3713 H   0  0  0  0  0  0  0  0  0  0  0  0
   -5.8921    0.6886    2.6203 H   0  0  0  0  0  0  0  0  0  0  0  0
   -8.5518    1.4900    0.9195 H   0  0  0  0  0  0  0  0  0  0  0  0
   -8.3012    0.1860   -1.3192 H   0  0  0  0  0  0  0  0  0  0  0  0
   -5.8839   -0.4092   -1.9319 H   0  0  0  0  0  0  0  0  0  0  0  0
   -4.3962   -1.5561    1.9684 H   0  0  0  0  0  0  0  0  0  0  0  0
   -2.3279   -2.6808    2.8202 H   0  0  0  0  0  0  0  0  0  0  0  0
   -0.2099   -2.0126    1.6662 H   0  0  0  0  0  0  0  0  0  0  0  0
  1  2  1  0
  2  3  2  0
  3  4  1  0
  4  5  2  0
  5  6  1  0
  6  7  1  0
  7  8  2  0
  7  9  1  0
  9 10  2  0
 10 11  1  0
 11 12  2  0
 12 13  1  0
 12 14  1  0
 14 15  2  0
 15 16  1  0
 16 17  2  0
 17 18  1  0
 18 19  1  0
 19 20  1  0
 20 21  2  0
 21 22  1  0
 17 23  1  0
 23 24  2  0
 24 25  1  0
 25 26  1  0
 26 27  2  0
  8  1  1  0
 13  9  1  0
 27 14  1  0
  8  4  1  0
 22 18  2  0
 27 23  1  0
  1 28  1  0
  1 29  1  0
  2 30  1  0
  3 31  1  0
  5 32  1  0
 10 33  1  0
 15 34  1  0
 16 35  1  0
 19 36  1  0
 19 37  1  0
 20 38  1  0
 21 39  1  0
 22 40  1  0
 24 41  1  0
 25 42  1  0
 26 43  1  0
M  END
