
     RDKit          3D

 48 55  0  0  0  0  0  0  0  0999 V2000
   -4.1745   -3.3810   -0.7599 Si  0  0  0  0  0  4  0  0  0  0  0  0
   -5.1055   -1.9325   -0.0364 C   0  0  0  0  0  0  0  0  0  0  0  0
   -4.3046   -0.8574    0.1236 C   0  0  0  0  0  0  0  0  0  0  0  0
   -4.7764    0.4986    0.4559 C   0  0  0  0  0  0  0  0  0  0  0  0
   -6.0760    0.7866    0.8904 C   0  0  0  0  0  0  0  0  0  0  0  0
   -6.4529    2.1046    1.1274 C   0  0  0  0  0  0  0  0  0  0  0  0
   -5.5169    3.0989    0.9210 C   0  0  0  0  0  0  0  0  0  0  0  0
   -4.2538    2.8629    0.5145 N   0  0  0  0  0  0  0  0  0  0  0  0
   -3.8795    1.5694    0.2855 C   0  0  0  0  0  0  0  0  0  0  0  0
   -2.4487    1.3355   -0.0805 C   0  0  0  0  0  0  0  0  0  0  0  0
   -1.6885    2.4502   -0.2636 N   0  0  0  0  0  0  0  0  0  0  0  0
   -0.3652    2.3018   -0.4772 C   0  0  0  0  0  0  0  0  0  0  0  0
    0.3222    1.0989   -0.4286 C   0  0  0  0  0  0  0  0  0  0  0  0
    1.7593    1.1096   -0.5917 C   0  0  0  0  0  0  0  0  0  0  0  0
    2.5861   -0.0243   -0.4717 C   0  0  0  0  0  0  0  0  0  0  0  0
    4.0255   -0.0098   -0.5807 C   0  0  0  0  0  0  0  0  0  0  0  0
    4.7865   -0.5863   -2.0214 S   0  0  0  0  0  0  0  0  0  0  0  0
    6.3763   -0.2519   -1.4280 C   0  0  0  0  0  0  0  0  0  0  0  0
    6.3182    0.2870   -0.1712 C   0  0  0  0  0  0  0  0  0  0  0  0
    7.3593    0.7194    0.7096 C   0  0  0  0  0  0  0  0  0  0  0  0
    6.9322    1.2068    1.8955 C   0  0  0  0  0  0  0  0  0  0  0  0
    5.0187    1.1609    2.0226 Si  0  0  0  0  0  4  0  0  0  0  0  0
    4.9823    0.4186    0.2907 C   0  0  0  0  0  0  0  0  0  0  0  0
    1.8407   -1.1403   -0.1144 C   0  0  0  0  0  0  0  0  0  0  0  0
    2.3128   -2.3829    0.2212 C   0  0  0  0  0  0  0  0  0  0  0  0
    1.2762   -3.1673    0.6324 O   0  0  0  0  0  0  0  0  0  0  0  0
    0.1384   -2.4161    0.5504 C   0  0  0  0  0  0  0  0  0  0  0  0
    0.4148   -1.1758    0.0277 C   0  0  0  0  0  0  0  0  0  0  0  0
   -0.4753   -0.0745   -0.1866 C   0  0  0  0  0  0  0  0  0  0  0  0
   -1.9058    0.0358   -0.1530 C   0  0  0  0  0  0  0  0  0  0  0  0
   -2.8844   -1.0779   -0.2384 C   0  0  0  0  0  0  0  0  0  0  0  0
   -2.6660   -2.2780   -0.8174 C   0  0  0  0  0  0  0  0  0  0  0  0
   -4.6630   -3.7491   -2.1095 H   0  0  0  0  0  0  0  0  0  0  0  0
   -4.0208   -4.4920    0.2088 H   0  0  0  0  0  0  0  0  0  0  0  0
   -6.1723   -1.9978    0.1020 H   0  0  0  0  0  0  0  0  0  0  0  0
   -6.8057   -0.0016    1.0462 H   0  0  0  0  0  0  0  0  0  0  0  0
   -7.4552    2.3492    1.4607 H   0  0  0  0  0  0  0  0  0  0  0  0
   -5.7602    4.1445    1.0863 H   0  0  0  0  0  0  0  0  0  0  0  0
    0.1520    3.2427   -0.6536 H   0  0  0  0  0  0  0  0  0  0  0  0
    2.2480    2.0631   -0.8063 H   0  0  0  0  0  0  0  0  0  0  0  0
    7.2415   -0.4703   -2.0380 H   0  0  0  0  0  0  0  0  0  0  0  0
    8.4064    0.6564    0.4367 H   0  0  0  0  0  0  0  0  0  0  0  0
    7.5300    1.5868    2.7081 H   0  0  0  0  0  0  0  0  0  0  0  0
    4.5871    0.2289    3.0934 H   0  0  0  0  0  0  0  0  0  0  0  0
    4.4624    2.5349    2.0982 H   0  0  0  0  0  0  0  0  0  0  0  0
    3.2913   -2.8411    0.2653 H   0  0  0  0  0  0  0  0  0  0  0  0
   -0.7476   -2.9100    0.9208 H   0  0  0  0  0  0  0  0  0  0  0  0
   -1.7694   -2.6342   -1.2981 H   0  0  0  0  0  0  0  0  0  0  0  0
  1  2  1  0
  2  3  2  0
  3  4  1  0
  4  5  2  0
  5  6  1  0
  6  7  2  0
  7  8  1  0
  8  9  2  0
  9 10  1  0
 10 11  2  0
 11 12  1  0
 12 13  2  0
 13 14  1  0
 14 15  2  0
 15 16  1  0
 16 17  1  0
 17 18  1  0
 18 19  2  0
 19 20  1  0
 20 21  2  0
 21 22  1  0
 22 23  1  0
 15 24  1  0
 24 25  2  0
 25 26  1  0
 26 27  1  0
 27 28  2  0
 28 29  1  0
 29 30  2  0
 30 31  1  0
 31 32  2  0
 32  1  1  0
 31  3  1  0
  9  4  1  0
 30 10  1  0
 29 13  1  0
 23 16  2  0
 28 24  1  0
 23 19  1  0
  1 33  1  0
  1 34  1  0
  2 35  1  0
  5 36  1  0
  6 37  1  0
  7 38  1  0
 12 39  1  0
 14 40  1  0
 18 41  1  0
 20 42  1  0
 21 43  1  0
 22 44  1  0
 22 45  1  0
 25 46  1  0
 27 47  1  0
 32 48  1  0
M  END
