
     RDKit          3D

 39 44  0  0  0  0  0  0  0  0999 V2000
   -5.1265    1.4929    0.4117 C   0  0  0  0  0  0  0  0  0  0  0  0
   -6.6401    1.6800    0.5748 C   0  0  0  0  0  0  0  0  0  0  0  0
   -7.2947    0.4994    0.4867 C   0  0  0  0  0  0  0  0  0  0  0  0
   -6.3548   -0.5367    0.2673 C   0  0  0  0  0  0  0  0  0  0  0  0
   -6.4052   -1.8857    0.1086 C   0  0  0  0  0  0  0  0  0  0  0  0
   -4.8035   -2.4921   -0.1042 S   0  0  0  0  0  0  0  0  0  0  0  0
   -4.0717   -0.9200   -0.0142 C   0  0  0  0  0  0  0  0  0  0  0  0
   -5.0555    0.0152    0.2116 C   0  0  0  0  0  0  0  0  0  0  0  0
   -2.6312   -0.7168   -0.1119 C   0  0  0  0  0  0  0  0  0  0  0  0
   -2.1264    0.3804    0.5390 N   0  0  0  0  0  0  0  0  0  0  0  0
   -0.7858    0.6662    0.5135 C   0  0  0  0  0  0  0  0  0  0  0  0
    0.2308   -0.0489   -0.1244 C   0  0  0  0  0  0  0  0  0  0  0  0
    1.6198    0.3802   -0.0670 C   0  0  0  0  0  0  0  0  0  0  0  0
    1.9739    1.6428    0.0583 N   0  0  0  0  0  0  0  0  0  0  0  0
    3.3500    1.7444    0.1215 C   0  0  0  0  0  0  0  0  0  0  0  0
    4.0718    0.5599    0.0756 C   0  0  0  0  0  0  0  0  0  0  0  0
    2.9286   -0.7301   -0.0363 S   0  0  0  0  0  0  0  0  0  0  0  0
    5.4750    0.3502    0.1326 C   0  0  0  0  0  0  0  0  0  0  0  0
    6.3933   -1.1529   -0.5640 Si  0  0  0  0  0  4  0  0  0  0  0  0
    7.9934   -0.3472    0.0071 C   0  0  0  0  0  0  0  0  0  0  0  0
    7.7552    0.8362    0.5993 C   0  0  0  0  0  0  0  0  0  0  0  0
    6.3541    1.2276    0.6647 C   0  0  0  0  0  0  0  0  0  0  0  0
   -0.2435   -1.1667   -0.8536 C   0  0  0  0  0  0  0  0  0  0  0  0
    0.4802   -2.0085   -1.6150 N   0  0  0  0  0  0  0  0  0  0  0  0
   -0.5601   -3.1230   -2.2521 S   0  0  0  0  0  0  0  0  0  0  0  0
   -1.9897   -2.6003   -1.6143 N   0  0  0  0  0  0  0  0  0  0  0  0
   -1.7247   -1.5218   -0.8538 C   0  0  0  0  0  0  0  0  0  0  0  0
   -4.6001    1.8098    1.3162 H   0  0  0  0  0  0  0  0  0  0  0  0
   -4.7596    2.0408   -0.4606 H   0  0  0  0  0  0  0  0  0  0  0  0
   -7.1047    2.6403    0.7411 H   0  0  0  0  0  0  0  0  0  0  0  0
   -8.3630    0.3590    0.5697 H   0  0  0  0  0  0  0  0  0  0  0  0
   -7.2571   -2.5504    0.1116 H   0  0  0  0  0  0  0  0  0  0  0  0
   -0.5313    1.5668    1.0765 H   0  0  0  0  0  0  0  0  0  0  0  0
    3.7893    2.7320    0.2006 H   0  0  0  0  0  0  0  0  0  0  0  0
    6.1201   -2.4063    0.1832 H   0  0  0  0  0  0  0  0  0  0  0  0
    6.3245   -1.2420   -2.0441 H   0  0  0  0  0  0  0  0  0  0  0  0
    8.9513   -0.8191   -0.1443 H   0  0  0  0  0  0  0  0  0  0  0  0
    8.5310    1.4736    1.0062 H   0  0  0  0  0  0  0  0  0  0  0  0
    6.0871    2.1710    1.1261 H   0  0  0  0  0  0  0  0  0  0  0  0
  1  2  1  0
  2  3  2  0
  3  4  1  0
  4  5  2  0
  5  6  1  0
  6  7  1  0
  7  8  2  0
  7  9  1  0
  9 10  2  0
 10 11  1  0
 11 12  2  0
 12 13  1  0
 13 14  2  0
 14 15  1  0
 15 16  2  0
 16 17  1  0
 16 18  1  0
 18 19  1  0
 19 20  1  0
 20 21  2  0
 21 22  1  0
 12 23  1  0
 23 24  2  0
 24 25  1  0
 25 26  1  0
 26 27  2  0
  8  1  1  0
 27  9  1  0
  8  4  1  0
 17 13  1  0
 22 18  2  0
 27 23  1  0
  1 28  1  0
  1 29  1  0
  2 30  1  0
  3 31  1  0
  5 32  1  0
 11 33  1  0
 15 34  1  0
 19 35  1  0
 19 36  1  0
 20 37  1  0
 21 38  1  0
 22 39  1  0
M  END
