
     RDKit          3D

 43 49  0  0  0  0  0  0  0  0999 V2000
    4.8309    0.3304    2.4617 C   0  0  0  0  0  0  0  0  0  0  0  0
    6.2272    0.4485    3.0854 C   0  0  0  0  0  0  0  0  0  0  0  0
    7.1874    0.5112    2.1346 C   0  0  0  0  0  0  0  0  0  0  0  0
    6.5802    0.4439    0.8571 C   0  0  0  0  0  0  0  0  0  0  0  0
    7.0093    0.4664   -0.4324 C   0  0  0  0  0  0  0  0  0  0  0  0
    5.6467    0.3558   -1.4856 S   0  0  0  0  0  0  0  0  0  0  0  0
    4.5026    0.2443   -0.1841 C   0  0  0  0  0  0  0  0  0  0  0  0
    5.1803    0.3309    1.0105 C   0  0  0  0  0  0  0  0  0  0  0  0
    3.0655    0.1373   -0.4072 C   0  0  0  0  0  0  0  0  0  0  0  0
    2.2571    0.6341    0.5879 N   0  0  0  0  0  0  0  0  0  0  0  0
    0.8919    0.5898    0.4839 C   0  0  0  0  0  0  0  0  0  0  0  0
    0.1406    0.0573   -0.5626 C   0  0  0  0  0  0  0  0  0  0  0  0
   -1.2987    0.0517   -0.6070 C   0  0  0  0  0  0  0  0  0  0  0  0
   -2.2904   -0.7325    0.5634 S   0  0  0  0  0  0  0  0  0  0  0  0
   -3.8022   -0.2768   -0.2178 C   0  0  0  0  0  0  0  0  0  0  0  0
   -5.0646   -0.6752    0.2837 C   0  0  0  0  0  0  0  0  0  0  0  0
   -5.5256   -0.7768    2.1116 Si  0  0  0  0  0  4  0  0  0  0  0  0
   -7.2504   -1.2964    1.5684 C   0  0  0  0  0  0  0  0  0  0  0  0
   -7.3405   -1.3482    0.2274 C   0  0  0  0  0  0  0  0  0  0  0  0
   -6.1232   -0.9966   -0.4901 C   0  0  0  0  0  0  0  0  0  0  0  0
   -3.4506    0.4549   -1.3088 C   0  0  0  0  0  0  0  0  0  0  0  0
   -4.0430    1.1614   -2.3734 C   0  0  0  0  0  0  0  0  0  0  0  0
   -2.9718    1.6921   -3.1026 C   0  0  0  0  0  0  0  0  0  0  0  0
   -1.7279    1.3868   -2.5842 O   0  0  0  0  0  0  0  0  0  0  0  0
   -2.1039    0.6337   -1.5131 C   0  0  0  0  0  0  0  0  0  0  0  0
    0.9239   -0.5044   -1.6006 C   0  0  0  0  0  0  0  0  0  0  0  0
    0.4694   -1.1243   -2.7056 N   0  0  0  0  0  0  0  0  0  0  0  0
    1.7922   -1.5935   -3.5790 S   0  0  0  0  0  0  0  0  0  0  0  0
    3.0107   -1.0690   -2.5929 N   0  0  0  0  0  0  0  0  0  0  0  0
    2.4399   -0.4696   -1.5309 C   0  0  0  0  0  0  0  0  0  0  0  0
    4.2137    1.1908    2.7351 H   0  0  0  0  0  0  0  0  0  0  0  0
    4.3482   -0.6028    2.7649 H   0  0  0  0  0  0  0  0  0  0  0  0
    6.4010    0.4791    4.1505 H   0  0  0  0  0  0  0  0  0  0  0  0
    8.2499    0.5991    2.3110 H   0  0  0  0  0  0  0  0  0  0  0  0
    8.0125    0.5478   -0.8255 H   0  0  0  0  0  0  0  0  0  0  0  0
    0.3849    1.0411    1.3374 H   0  0  0  0  0  0  0  0  0  0  0  0
   -4.8302   -1.8682    2.8392 H   0  0  0  0  0  0  0  0  0  0  0  0
   -5.5360    0.5476    2.7827 H   0  0  0  0  0  0  0  0  0  0  0  0
   -8.0275   -1.5169    2.2830 H   0  0  0  0  0  0  0  0  0  0  0  0
   -8.2405   -1.6280   -0.3067 H   0  0  0  0  0  0  0  0  0  0  0  0
   -6.1124   -1.0140   -1.5734 H   0  0  0  0  0  0  0  0  0  0  0  0
   -5.0912    1.2912   -2.6000 H   0  0  0  0  0  0  0  0  0  0  0  0
   -2.9354    2.3020   -3.9960 H   0  0  0  0  0  0  0  0  0  0  0  0
  1  2  1  0
  2  3  2  0
  3  4  1  0
  4  5  2  0
  5  6  1  0
  6  7  1  0
  7  8  2  0
  7  9  1  0
  9 10  2  0
 10 11  1  0
 11 12  2  0
 12 13  1  0
 13 14  1  0
 14 15  1  0
 15 16  1  0
 16 17  1  0
 17 18  1  0
 18 19  2  0
 19 20  1  0
 15 21  2  0
 21 22  1  0
 22 23  2  0
 23 24  1  0
 24 25  1  0
 12 26  1  0
 26 27  2  0
 27 28  1  0
 28 29  1  0
 29 30  2  0
  8  1  1  0
 30  9  1  0
  8  4  1  0
 25 13  2  0
 30 26  1  0
 20 16  2  0
 25 21  1  0
  1 31  1  0
  1 32  1  0
  2 33  1  0
  3 34  1  0
  5 35  1  0
 11 36  1  0
 17 37  1  0
 17 38  1  0
 18 39  1  0
 19 40  1  0
 20 41  1  0
 22 42  1  0
 23 43  1  0
M  END
