
     RDKit          3D

 41 47  0  0  0  0  0  0  0  0999 V2000
   -6.1589   -0.8817    0.4749 C   0  0  0  0  0  0  0  0  0  0  0  0
   -7.6791   -0.6837    0.4149 C   0  0  0  0  0  0  0  0  0  0  0  0
   -7.9993    0.5278   -0.0950 C   0  0  0  0  0  0  0  0  0  0  0  0
   -6.8092    1.2271   -0.4112 C   0  0  0  0  0  0  0  0  0  0  0  0
   -6.4977    2.4435   -0.9327 C   0  0  0  0  0  0  0  0  0  0  0  0
   -4.7802    2.5991   -1.0261 S   0  0  0  0  0  0  0  0  0  0  0  0
   -4.4888    1.0212   -0.3600 C   0  0  0  0  0  0  0  0  0  0  0  0
   -5.6949    0.4212   -0.0865 C   0  0  0  0  0  0  0  0  0  0  0  0
   -3.1762    0.4606   -0.1430 C   0  0  0  0  0  0  0  0  0  0  0  0
   -3.0248   -0.7529    0.3498 N   0  0  0  0  0  0  0  0  0  0  0  0
   -1.6805   -1.0516    0.4677 C   0  0  0  0  0  0  0  0  0  0  0  0
   -0.7965   -0.0736    0.0487 C   0  0  0  0  0  0  0  0  0  0  0  0
   -1.7071    1.2817   -0.4920 S   0  0  0  0  0  0  0  0  0  0  0  0
    0.6649   -0.0587    0.0304 C   0  0  0  0  0  0  0  0  0  0  0  0
    1.4302    0.5457   -0.9897 C   0  0  0  0  0  0  0  0  0  0  0  0
    2.8460    0.5553   -1.0069 C   0  0  0  0  0  0  0  0  0  0  0  0
    3.6560   -0.0377   -0.0106 C   0  0  0  0  0  0  0  0  0  0  0  0
    5.1141   -0.0201   -0.0415 C   0  0  0  0  0  0  0  0  0  0  0  0
    5.9365    0.3446    1.0376 C   0  0  0  0  0  0  0  0  0  0  0  0
    7.3104    0.3995    1.0838 N   0  0  0  0  0  0  0  0  0  0  0  0
    8.0560    0.0605   -0.0052 C   0  0  0  0  0  0  0  0  0  0  0  0
    7.3777   -0.3379   -1.1721 C   0  0  0  0  0  0  0  0  0  0  0  0
    7.9393   -0.7053   -2.3351 N   0  0  0  0  0  0  0  0  0  0  0  0
    6.6913   -1.0825   -3.3599 S   0  0  0  0  0  0  0  0  0  0  0  0
    5.3865   -0.7818   -2.3818 N   0  0  0  0  0  0  0  0  0  0  0  0
    5.8693   -0.3776   -1.1909 C   0  0  0  0  0  0  0  0  0  0  0  0
    2.9355   -0.6678    1.0483 C   0  0  0  0  0  0  0  0  0  0  0  0
    3.4724   -1.3019    2.1064 N   0  0  0  0  0  0  0  0  0  0  0  0
    2.2189   -1.8544    3.0338 S   0  0  0  0  0  0  0  0  0  0  0  0
    0.9270   -1.3214    2.1498 N   0  0  0  0  0  0  0  0  0  0  0  0
    1.4148   -0.6826    1.0704 C   0  0  0  0  0  0  0  0  0  0  0  0
   -5.8279   -1.0234    1.5074 H   0  0  0  0  0  0  0  0  0  0  0  0
   -5.8544   -1.7273   -0.1481 H   0  0  0  0  0  0  0  0  0  0  0  0
   -8.3871   -1.4298    0.7437 H   0  0  0  0  0  0  0  0  0  0  0  0
   -8.9998    0.9094   -0.2410 H   0  0  0  0  0  0  0  0  0  0  0  0
   -7.1488    3.2411   -1.2609 H   0  0  0  0  0  0  0  0  0  0  0  0
   -1.3985   -2.0193    0.8665 H   0  0  0  0  0  0  0  0  0  0  0  0
    0.9214    1.0264   -1.8272 H   0  0  0  0  0  0  0  0  0  0  0  0
    3.3292    1.0541   -1.8505 H   0  0  0  0  0  0  0  0  0  0  0  0
    5.4792    0.6403    1.9838 H   0  0  0  0  0  0  0  0  0  0  0  0
    9.1330    0.1138    0.0806 H   0  0  0  0  0  0  0  0  0  0  0  0
  1  2  1  0
  2  3  2  0
  3  4  1  0
  4  5  2  0
  5  6  1  0
  6  7  1  0
  7  8  2  0
  7  9  1  0
  9 10  2  0
 10 11  1  0
 11 12  2  0
 12 13  1  0
 12 14  1  0
 14 15  2  0
 15 16  1  0
 16 17  2  0
 17 18  1  0
 18 19  2  0
 19 20  1  0
 20 21  2  0
 21 22  1  0
 22 23  2  0
 23 24  1  0
 24 25  1  0
 25 26  2  0
 17 27  1  0
 27 28  2  0
 28 29  1  0
 29 30  1  0
 30 31  2  0
  8  1  1  0
 13  9  1  0
 31 14  1  0
  8  4  1  0
 26 18  1  0
 31 27  1  0
 26 22  1  0
  1 32  1  0
  1 33  1  0
  2 34  1  0
  3 35  1  0
  5 36  1  0
 11 37  1  0
 15 38  1  0
 16 39  1  0
 19 40  1  0
 21 41  1  0
M  END
