
     RDKit          3D

 46 52  0  0  0  0  0  0  0  0999 V2000
    5.0537   -1.3089   -1.2704 C   0  0  0  0  0  0  0  0  0  0  0  0
    6.5302   -1.6062   -1.5508 C   0  0  0  0  0  0  0  0  0  0  0  0
    7.3227   -1.1191   -0.5708 C   0  0  0  0  0  0  0  0  0  0  0  0
    6.5163   -0.4858    0.4056 C   0  0  0  0  0  0  0  0  0  0  0  0
    6.7486    0.1623    1.5763 C   0  0  0  0  0  0  0  0  0  0  0  0
    5.2490    0.6809    2.2400 S   0  0  0  0  0  0  0  0  0  0  0  0
    4.2990    0.0220    0.9341 C   0  0  0  0  0  0  0  0  0  0  0  0
    5.1527   -0.5743    0.0298 C   0  0  0  0  0  0  0  0  0  0  0  0
    2.8537    0.1404    0.9070 C   0  0  0  0  0  0  0  0  0  0  0  0
    1.9123   -0.5109   -0.3931 S   0  0  0  0  0  0  0  0  0  0  0  0
    0.3771   -0.0049    0.2477 C   0  0  0  0  0  0  0  0  0  0  0  0
   -0.8644   -0.2650   -0.4123 C   0  0  0  0  0  0  0  0  0  0  0  0
   -2.2632    0.1165    0.0306 C   0  0  0  0  0  0  0  0  0  0  0  0
   -3.1483   -0.4265   -1.0690 C   0  0  0  0  0  0  0  0  0  0  0  0
   -2.3583   -1.0179   -1.9802 C   0  0  0  0  0  0  0  0  0  0  0  0
   -0.9762   -0.9201   -1.5827 C   0  0  0  0  0  0  0  0  0  0  0  0
   -4.6100   -0.2775   -1.0455 C   0  0  0  0  0  0  0  0  0  0  0  0
   -5.2862    0.3840    0.0126 C   0  0  0  0  0  0  0  0  0  0  0  0
   -6.6901    0.5547    0.0839 C   0  0  0  0  0  0  0  0  0  0  0  0
   -7.5665    0.0798   -0.8992 C   0  0  0  0  0  0  0  0  0  0  0  0
   -6.9702   -0.5927   -1.9898 C   0  0  0  0  0  0  0  0  0  0  0  0
   -7.6410   -1.1173   -3.0268 N   0  0  0  0  0  0  0  0  0  0  0  0
   -6.5055   -1.7890   -4.0279 S   0  0  0  0  0  0  0  0  0  0  0  0
   -5.1170   -1.4470   -3.1958 N   0  0  0  0  0  0  0  0  0  0  0  0
   -5.4647   -0.7823   -2.0779 C   0  0  0  0  0  0  0  0  0  0  0  0
    0.6322    0.6427    1.4294 C   0  0  0  0  0  0  0  0  0  0  0  0
   -0.1575    1.2811    2.4248 C   0  0  0  0  0  0  0  0  0  0  0  0
    0.6426    1.7613    3.4008 C   0  0  0  0  0  0  0  0  0  0  0  0
    2.1110    1.4601    3.1095 C   0  0  0  0  0  0  0  0  0  0  0  0
    1.9996    0.7313    1.8081 C   0  0  0  0  0  0  0  0  0  0  0  0
    4.6357   -0.6831   -2.0639 H   0  0  0  0  0  0  0  0  0  0  0  0
    4.4911   -2.2415   -1.1724 H   0  0  0  0  0  0  0  0  0  0  0  0
    6.8738   -2.1383   -2.4252 H   0  0  0  0  0  0  0  0  0  0  0  0
    8.4000   -1.1956   -0.5299 H   0  0  0  0  0  0  0  0  0  0  0  0
    7.6837    0.3632    2.0791 H   0  0  0  0  0  0  0  0  0  0  0  0
   -2.3560    1.2056    0.1077 H   0  0  0  0  0  0  0  0  0  0  0  0
   -2.5003   -0.3513    0.9927 H   0  0  0  0  0  0  0  0  0  0  0  0
   -2.6553   -1.5099   -2.8939 H   0  0  0  0  0  0  0  0  0  0  0  0
   -0.1827   -1.3364   -2.1855 H   0  0  0  0  0  0  0  0  0  0  0  0
   -4.7081    0.7981    0.8393 H   0  0  0  0  0  0  0  0  0  0  0  0
   -7.1074    1.0801    0.9437 H   0  0  0  0  0  0  0  0  0  0  0  0
   -8.6393    0.2157   -0.8349 H   0  0  0  0  0  0  0  0  0  0  0  0
   -1.2332    1.3705    2.4068 H   0  0  0  0  0  0  0  0  0  0  0  0
    0.3071    2.2914    4.2796 H   0  0  0  0  0  0  0  0  0  0  0  0
    2.5325    0.8299    3.8975 H   0  0  0  0  0  0  0  0  0  0  0  0
    2.6767    2.3908    3.0111 H   0  0  0  0  0  0  0  0  0  0  0  0
  1  2  1  0
  2  3  2  0
  3  4  1  0
  4  5  2  0
  5  6  1  0
  6  7  1  0
  7  8  2  0
  7  9  1  0
  9 10  1  0
 10 11  1  0
 11 12  1  0
 12 13  1  0
 13 14  1  0
 14 15  2  0
 15 16  1  0
 14 17  1  0
 17 18  2  0
 18 19  1  0
 19 20  2  0
 20 21  1  0
 21 22  2  0
 22 23  1  0
 23 24  1  0
 24 25  2  0
 11 26  2  0
 26 27  1  0
 27 28  2  0
 28 29  1  0
 29 30  1  0
  8  1  1  0
 30  9  2  0
  8  4  1  0
 16 12  2  0
 25 17  1  0
 30 26  1  0
 25 21  1  0
  1 31  1  0
  1 32  1  0
  2 33  1  0
  3 34  1  0
  5 35  1  0
 13 36  1  0
 13 37  1  0
 15 38  1  0
 16 39  1  0
 18 40  1  0
 19 41  1  0
 20 42  1  0
 27 43  1  0
 28 44  1  0
 29 45  1  0
 29 46  1  0
M  END
