
     RDKit          3D

 47 53  0  0  0  0  0  0  0  0999 V2000
   -5.9798    0.2017   -1.3757 C   0  0  0  0  0  0  0  0  0  0  0  0
   -7.4357   -0.2351   -1.5747 C   0  0  0  0  0  0  0  0  0  0  0  0
   -7.8625   -1.0087   -0.5504 C   0  0  0  0  0  0  0  0  0  0  0  0
   -6.8087   -1.1660    0.3825 C   0  0  0  0  0  0  0  0  0  0  0  0
   -6.6388   -1.8220    1.5625 C   0  0  0  0  0  0  0  0  0  0  0  0
   -5.0273   -1.5637    2.1315 S   0  0  0  0  0  0  0  0  0  0  0  0
   -4.6008   -0.5745    0.7746 C   0  0  0  0  0  0  0  0  0  0  0  0
   -5.6730   -0.4564   -0.0724 C   0  0  0  0  0  0  0  0  0  0  0  0
   -3.3004    0.0101    0.6408 C   0  0  0  0  0  0  0  0  0  0  0  0
   -1.8601   -0.9367    0.5993 S   0  0  0  0  0  0  0  0  0  0  0  0
   -0.8401    0.4347    0.3931 C   0  0  0  0  0  0  0  0  0  0  0  0
    0.6056    0.3164    0.2671 C   0  0  0  0  0  0  0  0  0  0  0  0
    1.3666   -0.2665    1.2872 C   0  0  0  0  0  0  0  0  0  0  0  0
    2.7561   -0.3803    1.1642 C   0  0  0  0  0  0  0  0  0  0  0  0
    3.4206    0.0803    0.0181 C   0  0  0  0  0  0  0  0  0  0  0  0
    2.6528    0.6672   -0.9981 C   0  0  0  0  0  0  0  0  0  0  0  0
    1.2631    0.7812   -0.8779 C   0  0  0  0  0  0  0  0  0  0  0  0
    4.8668   -0.0279   -0.1114 C   0  0  0  0  0  0  0  0  0  0  0  0
    5.7514    1.0723   -0.2890 C   0  0  0  0  0  0  0  0  0  0  0  0
    7.1845    0.9613   -0.4132 C   0  0  0  0  0  0  0  0  0  0  0  0
    7.8943   -0.2605   -0.3793 C   0  0  0  0  0  0  0  0  0  0  0  0
    7.0136   -1.3198   -0.2142 C   0  0  0  0  0  0  0  0  0  0  0  0
    7.3311   -2.6498   -0.1500 C   0  0  0  0  0  0  0  0  0  0  0  0
    6.1861   -3.3844   -0.0012 O   0  0  0  0  0  0  0  0  0  0  0  0
    5.1341   -2.5085    0.0283 C   0  0  0  0  0  0  0  0  0  0  0  0
    5.5958   -1.2216   -0.0872 C   0  0  0  0  0  0  0  0  0  0  0  0
   -1.5804    1.5860    0.3648 C   0  0  0  0  0  0  0  0  0  0  0  0
   -1.1139    3.3264    0.2001 S   0  0  0  0  0  0  0  0  0  0  0  0
   -2.8346    3.6502    0.3385 C   0  0  0  0  0  0  0  0  0  0  0  0
   -3.6647    2.5353    0.4939 C   0  0  0  0  0  0  0  0  0  0  0  0
   -2.9433    1.3112    0.5035 C   0  0  0  0  0  0  0  0  0  0  0  0
   -5.9119    1.2908   -1.3136 H   0  0  0  0  0  0  0  0  0  0  0  0
   -5.3467   -0.1775   -2.1826 H   0  0  0  0  0  0  0  0  0  0  0  0
   -8.0294    0.0471   -2.4316 H   0  0  0  0  0  0  0  0  0  0  0  0
   -8.8463   -1.4454   -0.4525 H   0  0  0  0  0  0  0  0  0  0  0  0
   -7.3350   -2.4308    2.1214 H   0  0  0  0  0  0  0  0  0  0  0  0
    0.8872   -0.6295    2.1940 H   0  0  0  0  0  0  0  0  0  0  0  0
    3.3204   -0.8248    1.9822 H   0  0  0  0  0  0  0  0  0  0  0  0
    3.1334    1.0324   -1.9039 H   0  0  0  0  0  0  0  0  0  0  0  0
    0.6999    1.2309   -1.6928 H   0  0  0  0  0  0  0  0  0  0  0  0
    5.3255    2.0770   -0.3237 H   0  0  0  0  0  0  0  0  0  0  0  0
    7.7533    1.8837   -0.5402 H   0  0  0  0  0  0  0  0  0  0  0  0
    8.9678   -0.3335   -0.4757 H   0  0  0  0  0  0  0  0  0  0  0  0
    8.2475   -3.2205   -0.1954 H   0  0  0  0  0  0  0  0  0  0  0  0
    4.1581   -2.9617    0.1308 H   0  0  0  0  0  0  0  0  0  0  0  0
   -3.1437    4.6862    0.3034 H   0  0  0  0  0  0  0  0  0  0  0  0
   -4.7387    2.6239    0.6050 H   0  0  0  0  0  0  0  0  0  0  0  0
  1  2  1  0
  2  3  2  0
  3  4  1  0
  4  5  2  0
  5  6  1  0
  6  7  1  0
  7  8  2  0
  7  9  1  0
  9 10  1  0
 10 11  1  0
 11 12  1  0
 12 13  2  0
 13 14  1  0
 14 15  2  0
 15 16  1  0
 16 17  2  0
 15 18  1  0
 18 19  2  0
 19 20  1  0
 20 21  2  0
 21 22  1  0
 22 23  2  0
 23 24  1  0
 24 25  1  0
 25 26  2  0
 11 27  2  0
 27 28  1  0
 28 29  1  0
 29 30  2  0
 30 31  1  0
  8  1  1  0
 31  9  2  0
  8  4  1  0
 17 12  1  0
 26 18  1  0
 31 27  1  0
 26 22  1  0
  1 32  1  0
  1 33  1  0
  2 34  1  0
  3 35  1  0
  5 36  1  0
 13 37  1  0
 14 38  1  0
 16 39  1  0
 17 40  1  0
 19 41  1  0
 20 42  1  0
 21 43  1  0
 23 44  1  0
 25 45  1  0
 29 46  1  0
 30 47  1  0
M  END
