
     RDKit          3D

 45 52  0  0  0  0  0  0  0  0999 V2000
    5.1078    1.8368    0.4510 C   0  0  0  0  0  0  0  0  0  0  0  0
    6.5564    2.1584    0.8356 C   0  0  0  0  0  0  0  0  0  0  0  0
    7.1835    1.0742    1.3468 C   0  0  0  0  0  0  0  0  0  0  0  0
    6.2836   -0.0192    1.3601 C   0  0  0  0  0  0  0  0  0  0  0  0
    6.3308   -1.3198    1.7580 C   0  0  0  0  0  0  0  0  0  0  0  0
    4.7937   -2.0592    1.4748 S   0  0  0  0  0  0  0  0  0  0  0  0
    4.1093   -0.6118    0.8174 C   0  0  0  0  0  0  0  0  0  0  0  0
    5.0403    0.3948    0.8287 C   0  0  0  0  0  0  0  0  0  0  0  0
    2.7643   -0.5626    0.3434 C   0  0  0  0  0  0  0  0  0  0  0  0
    1.3743   -0.8127    1.3382 S   0  0  0  0  0  0  0  0  0  0  0  0
    0.2387   -0.5312    0.0421 C   0  0  0  0  0  0  0  0  0  0  0  0
   -1.1820   -0.5832    0.2421 C   0  0  0  0  0  0  0  0  0  0  0  0
   -2.2912    0.3598   -0.7246 S   0  0  0  0  0  0  0  0  0  0  0  0
   -3.6990   -0.2316    0.0808 C   0  0  0  0  0  0  0  0  0  0  0  0
   -5.0538    0.1752   -0.2188 C   0  0  0  0  0  0  0  0  0  0  0  0
   -6.0021    0.5135    0.7561 C   0  0  0  0  0  0  0  0  0  0  0  0
   -7.3038    0.9139    0.5655 N   0  0  0  0  0  0  0  0  0  0  0  0
   -7.8233    1.0099   -0.6918 C   0  0  0  0  0  0  0  0  0  0  0  0
   -6.9918    0.6841   -1.7812 C   0  0  0  0  0  0  0  0  0  0  0  0
   -7.3337    0.7126   -3.0796 N   0  0  0  0  0  0  0  0  0  0  0  0
   -5.9932    0.2254   -3.9265 S   0  0  0  0  0  0  0  0  0  0  0  0
   -4.9248   -0.0395   -2.6886 N   0  0  0  0  0  0  0  0  0  0  0  0
   -5.5647    0.2511   -1.5399 C   0  0  0  0  0  0  0  0  0  0  0  0
   -3.2897   -1.0783    1.0456 C   0  0  0  0  0  0  0  0  0  0  0  0
   -4.0802   -1.7557    1.9255 O   0  0  0  0  0  0  0  0  0  0  0  0
   -3.1121   -2.4500    2.6242 C   0  0  0  0  0  0  0  0  0  0  0  0
   -1.8044   -2.2018    2.1910 C   0  0  0  0  0  0  0  0  0  0  0  0
   -1.9314   -1.2757    1.1360 C   0  0  0  0  0  0  0  0  0  0  0  0
    0.9708   -0.2729   -1.0692 C   0  0  0  0  0  0  0  0  0  0  0  0
    0.8360    0.0184   -2.4553 C   0  0  0  0  0  0  0  0  0  0  0  0
    2.1360    0.1399   -2.9896 C   0  0  0  0  0  0  0  0  0  0  0  0
    3.1097   -0.0645   -2.0171 N   0  0  0  0  0  0  0  0  0  0  0  0
    2.3409   -0.2956   -0.9105 C   0  0  0  0  0  0  0  0  0  0  0  0
    4.9513    1.9886   -0.6202 H   0  0  0  0  0  0  0  0  0  0  0  0
    4.4075    2.4433    1.0318 H   0  0  0  0  0  0  0  0  0  0  0  0
    7.0016    3.1346    0.7116 H   0  0  0  0  0  0  0  0  0  0  0  0
    8.2056    1.0394    1.6970 H   0  0  0  0  0  0  0  0  0  0  0  0
    7.1450   -1.8799    2.1953 H   0  0  0  0  0  0  0  0  0  0  0  0
   -5.7243    0.4789    1.8109 H   0  0  0  0  0  0  0  0  0  0  0  0
   -8.8527    1.3272   -0.7918 H   0  0  0  0  0  0  0  0  0  0  0  0
   -3.5067   -3.0883    3.4044 H   0  0  0  0  0  0  0  0  0  0  0  0
   -0.9086   -2.6471    2.5998 H   0  0  0  0  0  0  0  0  0  0  0  0
   -0.0798    0.1222   -3.0226 H   0  0  0  0  0  0  0  0  0  0  0  0
    2.4449    0.3494   -4.0059 H   0  0  0  0  0  0  0  0  0  0  0  0
    4.1212   -0.0670   -2.0804 H   0  0  0  0  0  0  0  0  0  0  0  0
  1  2  1  0
  2  3  2  0
  3  4  1  0
  4  5  2  0
  5  6  1  0
  6  7  1  0
  7  8  2  0
  7  9  1  0
  9 10  1  0
 10 11  1  0
 11 12  1  0
 12 13  1  0
 13 14  1  0
 14 15  1  0
 15 16  2  0
 16 17  1  0
 17 18  2  0
 18 19  1  0
 19 20  2  0
 20 21  1  0
 21 22  1  0
 22 23  2  0
 14 24  2  0
 24 25  1  0
 25 26  1  0
 26 27  2  0
 27 28  1  0
 11 29  2  0
 29 30  1  0
 30 31  2  0
 31 32  1  0
 32 33  1  0
  8  1  1  0
 33  9  2  0
  8  4  1  0
 28 12  2  0
 33 29  1  0
 23 15  1  0
 28 24  1  0
 23 19  1  0
  1 34  1  0
  1 35  1  0
  2 36  1  0
  3 37  1  0
  5 38  1  0
 16 39  1  0
 18 40  1  0
 26 41  1  0
 27 42  1  0
 30 43  1  0
 31 44  1  0
 32 45  1  0
M  END
