
     RDKit          3D

 44 51  0  0  0  0  0  0  0  0999 V2000
    5.0630   -0.9948   -0.5989 C   0  0  0  0  0  0  0  0  0  0  0  0
    6.5548   -1.2912   -0.7728 C   0  0  0  0  0  0  0  0  0  0  0  0
    7.3130   -0.2914   -0.2731 C   0  0  0  0  0  0  0  0  0  0  0  0
    6.4661    0.7133    0.2533 C   0  0  0  0  0  0  0  0  0  0  0  0
    6.6579    1.9104    0.8624 C   0  0  0  0  0  0  0  0  0  0  0  0
    5.1301    2.5973    1.2362 S   0  0  0  0  0  0  0  0  0  0  0  0
    4.2129    1.2721    0.5729 C   0  0  0  0  0  0  0  0  0  0  0  0
    5.1094    0.3393    0.0825 C   0  0  0  0  0  0  0  0  0  0  0  0
    2.7594    1.2258    0.5711 C   0  0  0  0  0  0  0  0  0  0  0  0
    1.9049   -0.1128   -0.1033 S   0  0  0  0  0  0  0  0  0  0  0  0
    0.3317    0.5019    0.2363 C   0  0  0  0  0  0  0  0  0  0  0  0
   -0.8574   -0.2430   -0.1278 C   0  0  0  0  0  0  0  0  0  0  0  0
   -2.4723    0.3310    0.1909 S   0  0  0  0  0  0  0  0  0  0  0  0
   -3.2747   -1.0377   -0.4988 C   0  0  0  0  0  0  0  0  0  0  0  0
   -4.7055   -1.1868   -0.5537 C   0  0  0  0  0  0  0  0  0  0  0  0
   -5.4969   -2.5854   -1.2588 S   0  0  0  0  0  0  0  0  0  0  0  0
   -7.0938   -2.0139   -0.9416 C   0  0  0  0  0  0  0  0  0  0  0  0
   -6.9801   -0.8230   -0.3327 C   0  0  0  0  0  0  0  0  0  0  0  0
   -8.0116   -0.0401    0.0844 O   0  0  0  0  0  0  0  0  0  0  0  0
   -7.2998    1.0166    0.6155 C   0  0  0  0  0  0  0  0  0  0  0  0
   -5.9100    0.8744    0.5216 C   0  0  0  0  0  0  0  0  0  0  0  0
   -5.7002   -0.3672   -0.1183 C   0  0  0  0  0  0  0  0  0  0  0  0
   -2.3056   -1.8697   -0.9402 C   0  0  0  0  0  0  0  0  0  0  0  0
   -2.4744   -3.0757   -1.5561 O   0  0  0  0  0  0  0  0  0  0  0  0
   -1.1610   -3.4340   -1.7597 C   0  0  0  0  0  0  0  0  0  0  0  0
   -0.2368   -2.4963   -1.2928 C   0  0  0  0  0  0  0  0  0  0  0  0
   -1.0068   -1.4472   -0.7431 C   0  0  0  0  0  0  0  0  0  0  0  0
    0.5189    1.7038    0.8504 C   0  0  0  0  0  0  0  0  0  0  0  0
   -0.3641    2.6967    1.3735 C   0  0  0  0  0  0  0  0  0  0  0  0
    0.2925    3.7953    1.9275 C   0  0  0  0  0  0  0  0  0  0  0  0
    2.0311    3.7537    1.8802 S   0  0  0  0  0  0  0  0  0  0  0  0
    1.8440    2.1362    1.0524 C   0  0  0  0  0  0  0  0  0  0  0  0
    4.5728   -0.9392   -1.5749 H   0  0  0  0  0  0  0  0  0  0  0  0
    4.5968   -1.7592    0.0290 H   0  0  0  0  0  0  0  0  0  0  0  0
    6.9340   -2.1890   -1.2376 H   0  0  0  0  0  0  0  0  0  0  0  0
    8.3933   -0.2548   -0.2706 H   0  0  0  0  0  0  0  0  0  0  0  0
    7.5785    2.4198    1.1090 H   0  0  0  0  0  0  0  0  0  0  0  0
   -7.9918   -2.5532   -1.2046 H   0  0  0  0  0  0  0  0  0  0  0  0
   -7.9213    1.8012    1.0272 H   0  0  0  0  0  0  0  0  0  0  0  0
   -5.1838    1.5901    0.8775 H   0  0  0  0  0  0  0  0  0  0  0  0
   -1.0378   -4.3902   -2.2519 H   0  0  0  0  0  0  0  0  0  0  0  0
    0.8362   -2.5964   -1.3603 H   0  0  0  0  0  0  0  0  0  0  0  0
   -1.4441    2.6515    1.3665 H   0  0  0  0  0  0  0  0  0  0  0  0
   -0.1714    4.6618    2.3793 H   0  0  0  0  0  0  0  0  0  0  0  0
  1  2  1  0
  2  3  2  0
  3  4  1  0
  4  5  2  0
  5  6  1  0
  6  7  1  0
  7  8  2  0
  7  9  1  0
  9 10  1  0
 10 11  1  0
 11 12  1  0
 12 13  1  0
 13 14  1  0
 14 15  1  0
 15 16  1  0
 16 17  1  0
 17 18  2  0
 18 19  1  0
 19 20  1  0
 20 21  2  0
 21 22  1  0
 14 23  2  0
 23 24  1  0
 24 25  1  0
 25 26  2  0
 26 27  1  0
 11 28  2  0
 28 29  1  0
 29 30  2  0
 30 31  1  0
 31 32  1  0
  8  1  1  0
 32  9  2  0
  8  4  1  0
 27 12  2  0
 32 28  1  0
 22 15  2  0
 27 23  1  0
 22 18  1  0
  1 33  1  0
  1 34  1  0
  2 35  1  0
  3 36  1  0
  5 37  1  0
 17 38  1  0
 20 39  1  0
 21 40  1  0
 25 41  1  0
 26 42  1  0
 29 43  1  0
 30 44  1  0
M  END
