
     RDKit          3D

 44 51  0  0  0  0  0  0  0  0999 V2000
   -5.0835   -0.1076   -2.1866 C   0  0  0  0  0  0  0  0  0  0  0  0
   -6.4420   -0.6913   -2.5891 C   0  0  0  0  0  0  0  0  0  0  0  0
   -6.9592   -1.4593   -1.6018 C   0  0  0  0  0  0  0  0  0  0  0  0
   -6.0625   -1.4751   -0.5067 C   0  0  0  0  0  0  0  0  0  0  0  0
   -6.0259   -2.0652    0.7191 C   0  0  0  0  0  0  0  0  0  0  0  0
   -4.5581   -1.6257    1.5191 S   0  0  0  0  0  0  0  0  0  0  0  0
   -4.0053   -0.6655    0.1898 C   0  0  0  0  0  0  0  0  0  0  0  0
   -4.9353   -0.6786   -0.8165 C   0  0  0  0  0  0  0  0  0  0  0  0
   -2.7463    0.0148    0.2211 C   0  0  0  0  0  0  0  0  0  0  0  0
   -1.2503   -0.8272    0.3748 S   0  0  0  0  0  0  0  0  0  0  0  0
   -0.3134    0.6135    0.2964 C   0  0  0  0  0  0  0  0  0  0  0  0
    1.1101    0.6272    0.3748 C   0  0  0  0  0  0  0  0  0  0  0  0
    2.1016    0.0441   -0.9094 S   0  0  0  0  0  0  0  0  0  0  0  0
    3.5662    0.4303   -0.0888 C   0  0  0  0  0  0  0  0  0  0  0  0
    4.8584    0.1747   -0.6358 C   0  0  0  0  0  0  0  0  0  0  0  0
    5.4280    0.9749   -2.0543 S   0  0  0  0  0  0  0  0  0  0  0  0
    6.9511    0.1678   -2.0221 C   0  0  0  0  0  0  0  0  0  0  0  0
    7.0133   -0.6874   -0.9608 C   0  0  0  0  0  0  0  0  0  0  0  0
    8.3213   -1.7955   -0.4116 S   0  0  0  0  0  0  0  0  0  0  0  0
    7.2013   -2.2329    0.8711 C   0  0  0  0  0  0  0  0  0  0  0  0
    5.9600   -1.5850    0.8602 C   0  0  0  0  0  0  0  0  0  0  0  0
    5.8371   -0.6610   -0.2116 C   0  0  0  0  0  0  0  0  0  0  0  0
    3.3008    0.9811    1.1360 C   0  0  0  0  0  0  0  0  0  0  0  0
    4.3812    1.6021    2.4446 S   0  0  0  0  0  0  0  0  0  0  0  0
    2.8886    1.9741    3.2969 C   0  0  0  0  0  0  0  0  0  0  0  0
    1.6997    1.6508    2.6380 C   0  0  0  0  0  0  0  0  0  0  0  0
    1.9251    1.0707    1.3630 C   0  0  0  0  0  0  0  0  0  0  0  0
   -1.1225    1.7085    0.1613 C   0  0  0  0  0  0  0  0  0  0  0  0
   -0.7571    3.4731    0.0303 S   0  0  0  0  0  0  0  0  0  0  0  0
   -2.4998    3.6757   -0.0804 C   0  0  0  0  0  0  0  0  0  0  0  0
   -3.2644    2.5056   -0.0233 C   0  0  0  0  0  0  0  0  0  0  0  0
   -2.4678    1.3378    0.1145 C   0  0  0  0  0  0  0  0  0  0  0  0
   -4.2950   -0.4573   -2.8592 H   0  0  0  0  0  0  0  0  0  0  0  0
   -5.1207    0.9842   -2.1765 H   0  0  0  0  0  0  0  0  0  0  0  0
   -6.9139   -0.5022   -3.5434 H   0  0  0  0  0  0  0  0  0  0  0  0
   -7.9046   -1.9822   -1.6375 H   0  0  0  0  0  0  0  0  0  0  0  0
   -6.7459   -2.7152    1.1961 H   0  0  0  0  0  0  0  0  0  0  0  0
    7.7155    0.3410   -2.7644 H   0  0  0  0  0  0  0  0  0  0  0  0
    7.5364   -2.9764    1.5820 H   0  0  0  0  0  0  0  0  0  0  0  0
    5.1919   -1.7892    1.5990 H   0  0  0  0  0  0  0  0  0  0  0  0
    2.9820    2.4322    4.2709 H   0  0  0  0  0  0  0  0  0  0  0  0
    0.7220    1.8370    3.0717 H   0  0  0  0  0  0  0  0  0  0  0  0
   -2.8714    4.6856   -0.1778 H   0  0  0  0  0  0  0  0  0  0  0  0
   -4.3468    2.5169   -0.0734 H   0  0  0  0  0  0  0  0  0  0  0  0
  1  2  1  0
  2  3  2  0
  3  4  1  0
  4  5  2  0
  5  6  1  0
  6  7  1  0
  7  8  2  0
  7  9  1  0
  9 10  1  0
 10 11  1  0
 11 12  1  0
 12 13  1  0
 13 14  1  0
 14 15  1  0
 15 16  1  0
 16 17  1  0
 17 18  2  0
 18 19  1  0
 19 20  1  0
 20 21  2  0
 21 22  1  0
 14 23  2  0
 23 24  1  0
 24 25  1  0
 25 26  2  0
 26 27  1  0
 11 28  2  0
 28 29  1  0
 29 30  1  0
 30 31  2  0
 31 32  1  0
  8  1  1  0
 32  9  2  0
  8  4  1  0
 27 12  2  0
 32 28  1  0
 22 15  2  0
 27 23  1  0
 22 18  1  0
  1 33  1  0
  1 34  1  0
  2 35  1  0
  3 36  1  0
  5 37  1  0
 17 38  1  0
 20 39  1  0
 21 40  1  0
 25 41  1  0
 26 42  1  0
 30 43  1  0
 31 44  1  0
M  END
