
     RDKit          3D

 40 45  0  0  0  0  0  0  0  0999 V2000
    5.6050    0.5196    0.7317 C   0  0  0  0  0  0  0  0  0  0  0  0
    6.6237    1.6631    0.7593 C   0  0  0  0  0  0  0  0  0  0  0  0
    6.0126    2.8670    0.6857 C   0  0  0  0  0  0  0  0  0  0  0  0
    4.6121    2.6722    0.6062 C   0  0  0  0  0  0  0  0  0  0  0  0
    3.5225    3.4809    0.5162 C   0  0  0  0  0  0  0  0  0  0  0  0
    2.0975    2.5094    0.4592 S   0  0  0  0  0  0  0  0  0  0  0  0
    2.9822    1.0173    0.5579 C   0  0  0  0  0  0  0  0  0  0  0  0
    2.2991   -0.2480    0.5548 C   0  0  0  0  0  0  0  0  0  0  0  0
    2.8218   -1.5291    0.6085 C   0  0  0  0  0  0  0  0  0  0  0  0
    1.7312   -2.4331    0.5758 C   0  0  0  0  0  0  0  0  0  0  0  0
    0.5815   -1.6734    0.5054 C   0  0  0  0  0  0  0  0  0  0  0  0
    0.9319   -0.3518    0.4923 O   0  0  0  0  0  0  0  0  0  0  0  0
   -0.7812   -2.0927    0.4474 C   0  0  0  0  0  0  0  0  0  0  0  0
   -1.3491   -3.3491    0.4080 C   0  0  0  0  0  0  0  0  0  0  0  0
   -2.7570   -3.1794    0.3544 C   0  0  0  0  0  0  0  0  0  0  0  0
   -3.0183   -1.8230    0.3436 C   0  0  0  0  0  0  0  0  0  0  0  0
   -1.8072   -1.1800    0.4313 N   0  0  0  0  0  0  0  0  0  0  0  0
   -4.2622   -1.1271    0.2937 C   0  0  0  0  0  0  0  0  0  0  0  0
   -5.6399   -1.5556    1.2588 S   0  0  0  0  0  0  0  0  0  0  0  0
   -6.6108   -0.2448    0.6552 C   0  0  0  0  0  0  0  0  0  0  0  0
   -5.8706    0.4237   -0.2517 C   0  0  0  0  0  0  0  0  0  0  0  0
   -5.9471    1.5215   -1.1423 C   0  0  0  0  0  0  0  0  0  0  0  0
   -4.7102    1.5912   -1.8184 C   0  0  0  0  0  0  0  0  0  0  0  0
   -3.8394    0.5848   -1.4037 N   0  0  0  0  0  0  0  0  0  0  0  0
   -4.5961   -0.0558   -0.4620 C   0  0  0  0  0  0  0  0  0  0  0  0
    4.3274    1.2852    0.6306 C   0  0  0  0  0  0  0  0  0  0  0  0
    5.6575   -0.0658    1.6538 H   0  0  0  0  0  0  0  0  0  0  0  0
    5.7672   -0.1198   -0.1405 H   0  0  0  0  0  0  0  0  0  0  0  0
    7.6903    1.5096    0.8294 H   0  0  0  0  0  0  0  0  0  0  0  0
    6.5046    3.8294    0.6870 H   0  0  0  0  0  0  0  0  0  0  0  0
    3.4636    4.5594    0.4810 H   0  0  0  0  0  0  0  0  0  0  0  0
    3.8678   -1.7913    0.6641 H   0  0  0  0  0  0  0  0  0  0  0  0
    1.7783   -3.5126    0.6020 H   0  0  0  0  0  0  0  0  0  0  0  0
   -0.8173   -4.2914    0.4178 H   0  0  0  0  0  0  0  0  0  0  0  0
   -3.4999   -3.9662    0.3140 H   0  0  0  0  0  0  0  0  0  0  0  0
   -1.6757   -0.1795    0.5018 H   0  0  0  0  0  0  0  0  0  0  0  0
   -7.6228   -0.0849    0.9970 H   0  0  0  0  0  0  0  0  0  0  0  0
   -6.7848    2.1874   -1.3014 H   0  0  0  0  0  0  0  0  0  0  0  0
   -4.3817    2.2840   -2.5828 H   0  0  0  0  0  0  0  0  0  0  0  0
   -2.9065    0.3486   -1.7192 H   0  0  0  0  0  0  0  0  0  0  0  0
  1  2  1  0
  2  3  2  0
  3  4  1  0
  4  5  2  0
  5  6  1  0
  6  7  1  0
  7  8  1  0
  8  9  2  0
  9 10  1  0
 10 11  2  0
 11 12  1  0
 11 13  1  0
 13 14  2  0
 14 15  1  0
 15 16  2  0
 16 17  1  0
 16 18  1  0
 18 19  1  0
 19 20  1  0
 20 21  2  0
 21 22  1  0
 22 23  2  0
 23 24  1  0
 24 25  1  0
  7 26  2  0
 26  1  1  0
 26  4  1  0
 12  8  1  0
 17 13  1  0
 25 18  2  0
 25 21  1  0
  1 27  1  0
  1 28  1  0
  2 29  1  0
  3 30  1  0
  5 31  1  0
  9 32  1  0
 10 33  1  0
 14 34  1  0
 15 35  1  0
 17 36  1  0
 20 37  1  0
 22 38  1  0
 23 39  1  0
 24 40  1  0
M  END
