
     RDKit          3D

 40 45  0  0  0  0  0  0  0  0999 V2000
   -4.7732    0.5180   -1.8262 C   0  0  0  0  0  0  0  0  0  0  0  0
   -6.1384    0.7169   -2.4922 C   0  0  0  0  0  0  0  0  0  0  0  0
   -7.1452    0.3626   -1.6622 C   0  0  0  0  0  0  0  0  0  0  0  0
   -6.5995   -0.0807   -0.4328 C   0  0  0  0  0  0  0  0  0  0  0  0
   -7.1088   -0.5421    0.7402 C   0  0  0  0  0  0  0  0  0  0  0  0
   -5.8144   -0.8957    1.8187 S   0  0  0  0  0  0  0  0  0  0  0  0
   -4.5781   -0.4174    0.6811 C   0  0  0  0  0  0  0  0  0  0  0  0
   -3.1717   -0.4887    1.0267 C   0  0  0  0  0  0  0  0  0  0  0  0
   -2.6126   -0.8112    2.2516 C   0  0  0  0  0  0  0  0  0  0  0  0
   -1.1862   -0.7868    2.2413 C   0  0  0  0  0  0  0  0  0  0  0  0
   -0.6705   -0.4525    1.0050 C   0  0  0  0  0  0  0  0  0  0  0  0
   -1.9320   -0.1621   -0.1161 S   0  0  0  0  0  0  0  0  0  0  0  0
    0.7334   -0.3069    0.6065 C   0  0  0  0  0  0  0  0  0  0  0  0
    1.2233   -0.7656   -0.6164 C   0  0  0  0  0  0  0  0  0  0  0  0
    2.5763   -0.6087   -0.9321 C   0  0  0  0  0  0  0  0  0  0  0  0
    3.4408    0.0003   -0.0191 C   0  0  0  0  0  0  0  0  0  0  0  0
    2.9772    0.4545    1.1707 N   0  0  0  0  0  0  0  0  0  0  0  0
    1.6600    0.2912    1.4538 C   0  0  0  0  0  0  0  0  0  0  0  0
    4.8654    0.1917   -0.3238 C   0  0  0  0  0  0  0  0  0  0  0  0
    5.2757    0.0784   -1.6448 N   0  0  0  0  0  0  0  0  0  0  0  0
    6.5793    0.2554   -2.0199 C   0  0  0  0  0  0  0  0  0  0  0  0
    7.6549    0.5509   -1.1954 C   0  0  0  0  0  0  0  0  0  0  0  0
    7.3060    0.6620    0.1624 C   0  0  0  0  0  0  0  0  0  0  0  0
    8.1714    0.9312    1.1534 N   0  0  0  0  0  0  0  0  0  0  0  0
    7.2883    0.9484    2.5562 S   0  0  0  0  0  0  0  0  0  0  0  0
    5.7800    0.6063    1.9721 N   0  0  0  0  0  0  0  0  0  0  0  0
    5.8811    0.4789    0.6353 C   0  0  0  0  0  0  0  0  0  0  0  0
   -5.1852   -0.0053   -0.4855 C   0  0  0  0  0  0  0  0  0  0  0  0
   -4.1811   -0.2113   -2.3871 H   0  0  0  0  0  0  0  0  0  0  0  0
   -4.2436    1.4723   -1.7484 H   0  0  0  0  0  0  0  0  0  0  0  0
   -6.2604    1.0926   -3.4976 H   0  0  0  0  0  0  0  0  0  0  0  0
   -8.2008    0.4075   -1.8905 H   0  0  0  0  0  0  0  0  0  0  0  0
   -8.1382   -0.6928    1.0338 H   0  0  0  0  0  0  0  0  0  0  0  0
   -3.1924   -1.0564    3.1334 H   0  0  0  0  0  0  0  0  0  0  0  0
   -0.5749   -1.0160    3.1064 H   0  0  0  0  0  0  0  0  0  0  0  0
    0.5714   -1.2577   -1.3337 H   0  0  0  0  0  0  0  0  0  0  0  0
    2.9478   -0.9670   -1.8885 H   0  0  0  0  0  0  0  0  0  0  0  0
    1.3667    0.6846    2.4243 H   0  0  0  0  0  0  0  0  0  0  0  0
    6.7434    0.1432   -3.0918 H   0  0  0  0  0  0  0  0  0  0  0  0
    8.6650    0.6783   -1.5569 H   0  0  0  0  0  0  0  0  0  0  0  0
  1  2  1  0
  2  3  2  0
  3  4  1  0
  4  5  2  0
  5  6  1  0
  6  7  1  0
  7  8  1  0
  8  9  2  0
  9 10  1  0
 10 11  2  0
 11 12  1  0
 11 13  1  0
 13 14  2  0
 14 15  1  0
 15 16  2  0
 16 17  1  0
 17 18  2  0
 16 19  1  0
 19 20  2  0
 20 21  1  0
 21 22  2  0
 22 23  1  0
 23 24  2  0
 24 25  1  0
 25 26  1  0
 26 27  2  0
  7 28  2  0
 28  1  1  0
 28  4  1  0
 12  8  1  0
 18 13  1  0
 27 19  1  0
 27 23  1  0
  1 29  1  0
  1 30  1  0
  2 31  1  0
  3 32  1  0
  5 33  1  0
  9 34  1  0
 10 35  1  0
 14 36  1  0
 15 37  1  0
 18 38  1  0
 21 39  1  0
 22 40  1  0
M  END
