
     RDKit          3D

 76 85  0  0  0  0  0  0  0  0999 V2000
   10.5132    0.1312    1.1003 C   0  0  0  0  0  0  0  0  0  0  0  0
   10.2036   -0.5401    2.2904 C   0  0  0  0  0  0  0  0  0  0  0  0
    8.8788   -0.8193    2.6474 C   0  0  0  0  0  0  0  0  0  0  0  0
    7.9109   -0.3890    1.7485 C   0  0  0  0  0  0  0  0  0  0  0  0
    6.5595   -0.5347    1.8551 O   0  0  0  0  0  0  0  0  0  0  0  0
    6.0706    0.0562    0.7152 C   0  0  0  0  0  0  0  0  0  0  0  0
    4.6194    0.0491    0.5444 C   0  0  0  0  0  0  0  0  0  0  0  0
    4.0517    0.6415   -0.5905 C   0  0  0  0  0  0  0  0  0  0  0  0
    2.6647    0.6447   -0.7839 C   0  0  0  0  0  0  0  0  0  0  0  0
    1.8016    0.0536    0.1511 C   0  0  0  0  0  0  0  0  0  0  0  0
    0.3440    0.0469   -0.0557 C   0  0  0  0  0  0  0  0  0  0  0  0
   -0.3929   -1.1454    0.0380 C   0  0  0  0  0  0  0  0  0  0  0  0
   -1.7843   -1.1639   -0.1617 C   0  0  0  0  0  0  0  0  0  0  0  0
   -2.5095   -2.4020   -0.0613 N   0  0  0  0  0  0  0  0  0  0  0  0
   -3.0515   -2.7805    1.2287 C   0  0  0  0  0  0  0  0  0  0  0  0
   -2.9119   -1.9210    2.3488 C   0  0  0  0  0  0  0  0  0  0  0  0
   -3.4237   -2.2428    3.6097 C   0  0  0  0  0  0  0  0  0  0  0  0
   -4.0925   -3.4408    3.7948 C   0  0  0  0  0  0  0  0  0  0  0  0
   -4.2431   -4.3088    2.7178 C   0  0  0  0  0  0  0  0  0  0  0  0
   -3.7314   -3.9915    1.4426 C   0  0  0  0  0  0  0  0  0  0  0  0
   -4.0013   -5.2155    0.1912 S   0  0  0  0  0  0  0  0  0  0  0  0
   -3.3109   -4.4568   -1.2519 C   0  0  0  0  0  0  0  0  0  0  0  0
   -3.4386   -5.1996   -2.4433 C   0  0  0  0  0  0  0  0  0  0  0  0
   -2.9340   -4.7242   -3.6495 C   0  0  0  0  0  0  0  0  0  0  0  0
   -2.2928   -3.4974   -3.6786 C   0  0  0  0  0  0  0  0  0  0  0  0
   -2.1611   -2.7547   -2.5015 C   0  0  0  0  0  0  0  0  0  0  0  0
   -2.6651   -3.2085   -1.2557 C   0  0  0  0  0  0  0  0  0  0  0  0
   -2.4564    0.0267   -0.4614 C   0  0  0  0  0  0  0  0  0  0  0  0
   -1.7436    1.2273   -0.5603 C   0  0  0  0  0  0  0  0  0  0  0  0
   -2.4313    2.4516   -0.8725 N   0  0  0  0  0  0  0  0  0  0  0  0
   -2.5716    2.8264   -2.2659 C   0  0  0  0  0  0  0  0  0  0  0  0
   -1.9972    2.0270   -3.2875 C   0  0  0  0  0  0  0  0  0  0  0  0
   -2.1075    2.3495   -4.6436 C   0  0  0  0  0  0  0  0  0  0  0  0
   -2.7992    3.4863   -5.0254 C   0  0  0  0  0  0  0  0  0  0  0  0
   -3.3751    4.2923   -4.0481 C   0  0  0  0  0  0  0  0  0  0  0  0
   -3.2684    3.9746   -2.6788 C   0  0  0  0  0  0  0  0  0  0  0  0
   -4.0665    5.1062   -1.5750 S   0  0  0  0  0  0  0  0  0  0  0  0
   -3.7060    4.4182    0.0166 C   0  0  0  0  0  0  0  0  0  0  0  0
   -4.2137    5.1420    1.1150 C   0  0  0  0  0  0  0  0  0  0  0  0
   -4.0053    4.7143    2.4227 C   0  0  0  0  0  0  0  0  0  0  0  0
   -3.2835    3.5548    2.6479 C   0  0  0  0  0  0  0  0  0  0  0  0
   -2.7772    2.8304    1.5642 C   0  0  0  0  0  0  0  0  0  0  0  0
   -2.9731    3.2364    0.2192 C   0  0  0  0  0  0  0  0  0  0  0  0
   -0.3523    1.2293   -0.3560 C   0  0  0  0  0  0  0  0  0  0  0  0
    2.3748   -0.5366    1.2880 C   0  0  0  0  0  0  0  0  0  0  0  0
    3.7621   -0.5388    1.4827 C   0  0  0  0  0  0  0  0  0  0  0  0
    6.9977    0.5565   -0.0844 N   0  0  0  0  0  0  0  0  0  0  0  0
    8.1737    0.2769    0.5633 C   0  0  0  0  0  0  0  0  0  0  0  0
    9.5038    0.5496    0.2196 C   0  0  0  0  0  0  0  0  0  0  0  0
   11.5535    0.3324    0.8524 H   0  0  0  0  0  0  0  0  0  0  0  0
   11.0098   -0.8516    2.9522 H   0  0  0  0  0  0  0  0  0  0  0  0
    8.6203   -1.3366    3.5624 H   0  0  0  0  0  0  0  0  0  0  0  0
    4.6919    1.1050   -1.3398 H   0  0  0  0  0  0  0  0  0  0  0  0
    2.2662    1.1057   -1.6855 H   0  0  0  0  0  0  0  0  0  0  0  0
    0.1138   -2.0844    0.2560 H   0  0  0  0  0  0  0  0  0  0  0  0
   -2.3982   -0.9672    2.2638 H   0  0  0  0  0  0  0  0  0  0  0  0
   -3.2977   -1.5524    4.4396 H   0  0  0  0  0  0  0  0  0  0  0  0
   -4.4963   -3.7023    4.7690 H   0  0  0  0  0  0  0  0  0  0  0  0
   -4.7690   -5.2488    2.8782 H   0  0  0  0  0  0  0  0  0  0  0  0
   -3.9402   -6.1660   -2.4352 H   0  0  0  0  0  0  0  0  0  0  0  0
   -3.0430   -5.3103   -4.5576 H   0  0  0  0  0  0  0  0  0  0  0  0
   -1.8931   -3.1105   -4.6122 H   0  0  0  0  0  0  0  0  0  0  0  0
   -1.6500   -1.7993   -2.5861 H   0  0  0  0  0  0  0  0  0  0  0  0
   -3.5321    0.0188   -0.6188 H   0  0  0  0  0  0  0  0  0  0  0  0
   -1.4442    1.1229   -3.0477 H   0  0  0  0  0  0  0  0  0  0  0  0
   -1.6520    1.7079   -5.3936 H   0  0  0  0  0  0  0  0  0  0  0  0
   -2.8931    3.7482   -6.0756 H   0  0  0  0  0  0  0  0  0  0  0  0
   -3.9163    5.1831   -4.3622 H   0  0  0  0  0  0  0  0  0  0  0  0
   -4.7828    6.0560    0.9527 H   0  0  0  0  0  0  0  0  0  0  0  0
   -4.4047    5.2856    3.2561 H   0  0  0  0  0  0  0  0  0  0  0  0
   -3.1096    3.2067    3.6628 H   0  0  0  0  0  0  0  0  0  0  0  0
   -2.2172    1.9301    1.8022 H   0  0  0  0  0  0  0  0  0  0  0  0
    0.1826    2.1753   -0.4259 H   0  0  0  0  0  0  0  0  0  0  0  0
    1.7417   -0.9976    2.0440 H   0  0  0  0  0  0  0  0  0  0  0  0
    4.1624   -1.0075    2.3790 H   0  0  0  0  0  0  0  0  0  0  0  0
    9.7397    1.0692   -0.7025 H   0  0  0  0  0  0  0  0  0  0  0  0
  1  2  2  0
  2  3  1  0
  3  4  2  0
  4  5  1  0
  5  6  1  0
  6  7  1  0
  7  8  2  0
  8  9  1  0
  9 10  2  0
 10 11  1  0
 11 12  2  0
 12 13  1  0
 13 14  1  0
 14 15  1  0
 15 16  2  0
 16 17  1  0
 17 18  2  0
 18 19  1  0
 19 20  2  0
 20 21  1  0
 21 22  1  0
 22 23  2  0
 23 24  1  0
 24 25  2  0
 25 26  1  0
 26 27  2  0
 13 28  2  0
 28 29  1  0
 29 30  1  0
 30 31  1  0
 31 32  2  0
 32 33  1  0
 33 34  2  0
 34 35  1  0
 35 36  2  0
 36 37  1  0
 37 38  1  0
 38 39  2  0
 39 40  1  0
 40 41  2  0
 41 42  1  0
 42 43  2  0
 29 44  2  0
 10 45  1  0
 45 46  2  0
  6 47  2  0
 47 48  1  0
 48 49  2  0
 49  1  1  0
 48  4  1  0
 46  7  1  0
 44 11  1  0
 27 14  1  0
 43 30  1  0
 20 15  1  0
 27 22  1  0
 36 31  1  0
 43 38  1  0
  1 50  1  0
  2 51  1  0
  3 52  1  0
  8 53  1  0
  9 54  1  0
 12 55  1  0
 16 56  1  0
 17 57  1  0
 18 58  1  0
 19 59  1  0
 23 60  1  0
 24 61  1  0
 25 62  1  0
 26 63  1  0
 28 64  1  0
 32 65  1  0
 33 66  1  0
 34 67  1  0
 35 68  1  0
 39 69  1  0
 40 70  1  0
 41 71  1  0
 42 72  1  0
 44 73  1  0
 45 74  1  0
 46 75  1  0
 49 76  1  0
M  END
