
     RDKit          3D

 32 36  0  0  0  0  0  0  0  0999 V2000
    5.0948   -0.0686    0.1498 C   0  0  0  0  0  0  0  0  0  0  0  0
    4.5367   -1.3209    0.4395 C   0  0  0  0  0  0  0  0  0  0  0  0
    3.1496   -1.5117    0.4717 C   0  0  0  0  0  0  0  0  0  0  0  0
    2.3829   -0.3857    0.1996 C   0  0  0  0  0  0  0  0  0  0  0  0
    1.0233   -0.2958    0.1660 O   0  0  0  0  0  0  0  0  0  0  0  0
    0.7718    1.0095   -0.1436 C   0  0  0  0  0  0  0  0  0  0  0  0
   -0.6160    1.4497   -0.2599 C   0  0  0  0  0  0  0  0  0  0  0  0
   -0.8326    2.8160   -0.5836 C   0  0  0  0  0  0  0  0  0  0  0  0
   -2.1054    3.3600   -0.7233 C   0  0  0  0  0  0  0  0  0  0  0  0
   -3.2249    2.5607   -0.5453 C   0  0  0  0  0  0  0  0  0  0  0  0
   -3.0053    1.2198   -0.2276 C   0  0  0  0  0  0  0  0  0  0  0  0
   -4.0168    0.3435   -0.0305 O   0  0  0  0  0  0  0  0  0  0  0  0
   -3.4641   -0.8561    0.2570 C   0  0  0  0  0  0  0  0  0  0  0  0
   -4.2213   -1.9410    0.5056 N   0  0  0  0  0  0  0  0  0  0  0  0
   -3.5057   -3.0478    0.7727 C   0  0  0  0  0  0  0  0  0  0  0  0
   -2.1245   -3.1163    0.8015 C   0  0  0  0  0  0  0  0  0  0  0  0
   -1.3831   -1.9622    0.5365 C   0  0  0  0  0  0  0  0  0  0  0  0
   -2.0687   -0.7639    0.2481 C   0  0  0  0  0  0  0  0  0  0  0  0
   -1.7535    0.6113   -0.0729 C   0  0  0  0  0  0  0  0  0  0  0  0
    1.8633    1.7435   -0.3064 N   0  0  0  0  0  0  0  0  0  0  0  0
    2.8934    0.8662   -0.0904 C   0  0  0  0  0  0  0  0  0  0  0  0
    4.2820    1.0435   -0.1194 C   0  0  0  0  0  0  0  0  0  0  0  0
    6.1771    0.0461    0.1326 H   0  0  0  0  0  0  0  0  0  0  0  0
    5.1952   -2.1636    0.6439 H   0  0  0  0  0  0  0  0  0  0  0  0
    2.7012   -2.4714    0.6935 H   0  0  0  0  0  0  0  0  0  0  0  0
    0.0268    3.4727   -0.7303 H   0  0  0  0  0  0  0  0  0  0  0  0
   -2.2227    4.4121   -0.9721 H   0  0  0  0  0  0  0  0  0  0  0  0
   -4.2309    2.9526   -0.6468 H   0  0  0  0  0  0  0  0  0  0  0  0
   -4.1026   -3.9340    0.9759 H   0  0  0  0  0  0  0  0  0  0  0  0
   -1.6258   -4.0534    1.0267 H   0  0  0  0  0  0  0  0  0  0  0  0
   -0.3043   -2.0288    0.5621 H   0  0  0  0  0  0  0  0  0  0  0  0
    4.7100    2.0141   -0.3440 H   0  0  0  0  0  0  0  0  0  0  0  0
  1  2  2  0
  2  3  1  0
  3  4  2  0
  4  5  1  0
  5  6  1  0
  6  7  1  0
  7  8  2  0
  8  9  1  0
  9 10  2  0
 10 11  1  0
 11 12  1  0
 12 13  1  0
 13 14  2  0
 14 15  1  0
 15 16  2  0
 16 17  1  0
 17 18  2  0
 18 19  1  0
  6 20  2  0
 20 21  1  0
 21 22  2  0
 22  1  1  0
 21  4  1  0
 19  7  1  0
 19 11  2  0
 18 13  1  0
  1 23  1  0
  2 24  1  0
  3 25  1  0
  8 26  1  0
  9 27  1  0
 10 28  1  0
 15 29  1  0
 16 30  1  0
 17 31  1  0
 22 32  1  0
M  END
