
     RDKit          3D

 21 23  0  0  0  0  0  0  0  0999 V2000
    3.6885   -0.5448    0.2766 C   0  0  0  0  0  0  0  0  0  0  0  0
    3.6086   -0.0339   -1.0257 C   0  0  0  0  0  0  0  0  0  0  0  0
    2.3807    0.3301   -1.5922 C   0  0  0  0  0  0  0  0  0  0  0  0
    1.2674    0.1500   -0.7807 C   0  0  0  0  0  0  0  0  0  0  0  0
   -0.0317    0.4222   -1.0868 O   0  0  0  0  0  0  0  0  0  0  0  0
   -0.7270    0.0686    0.0463 C   0  0  0  0  0  0  0  0  0  0  0  0
   -2.2643    0.2064    0.1628 C   0  0  0  0  0  0  0  0  0  0  0  0
   -3.1673    0.6839   -0.7989 C   0  0  0  0  0  0  0  0  0  0  0  0
   -4.4295    0.6635   -0.3563 N   0  0  0  0  0  0  0  0  0  0  0  0
   -4.3192    0.1699    0.8918 N   0  0  0  0  0  0  0  0  0  0  0  0
   -3.0359   -0.1209    1.2510 C   0  0  0  0  0  0  0  0  0  0  0  0
    0.0336   -0.3981    1.0237 N   0  0  0  0  0  0  0  0  0  0  0  0
    1.3028   -0.3507    0.5088 C   0  0  0  0  0  0  0  0  0  0  0  0
    2.5378   -0.7107    1.0629 C   0  0  0  0  0  0  0  0  0  0  0  0
    4.6586   -0.8182    0.6875 H   0  0  0  0  0  0  0  0  0  0  0  0
    4.5198    0.0828   -1.6101 H   0  0  0  0  0  0  0  0  0  0  0  0
    2.2988    0.7264   -2.5963 H   0  0  0  0  0  0  0  0  0  0  0  0
   -2.9640    1.0448   -1.7990 H   0  0  0  0  0  0  0  0  0  0  0  0
   -5.1654    0.0589    1.4413 H   0  0  0  0  0  0  0  0  0  0  0  0
   -2.7882   -0.5243    2.2224 H   0  0  0  0  0  0  0  0  0  0  0  0
    2.5957   -1.1057    2.0709 H   0  0  0  0  0  0  0  0  0  0  0  0
  1  2  2  0
  2  3  1  0
  3  4  2  0
  4  5  1  0
  5  6  1  0
  6  7  1  0
  7  8  1  0
  8  9  2  0
  9 10  1  0
 10 11  1  0
  6 12  2  0
 12 13  1  0
 13 14  2  0
 14  1  1  0
 13  4  1  0
 11  7  2  0
  1 15  1  0
  2 16  1  0
  3 17  1  0
  8 18  1  0
 10 19  1  0
 11 20  1  0
 14 21  1  0
M  END
