
     RDKit          3D

 32 36  0  0  0  0  0  0  0  0999 V2000
    5.1123    1.4886    0.4861 C   0  0  0  0  0  0  0  0  0  0  0  0
    5.6072    0.1873    0.3285 C   0  0  0  0  0  0  0  0  0  0  0  0
    4.7480   -0.9018    0.1373 C   0  0  0  0  0  0  0  0  0  0  0  0
    3.3920   -0.6008    0.1159 C   0  0  0  0  0  0  0  0  0  0  0  0
    2.3543   -1.4693   -0.0529 O   0  0  0  0  0  0  0  0  0  0  0  0
    1.2407   -0.6706    0.0061 C   0  0  0  0  0  0  0  0  0  0  0  0
   -0.0380   -1.3325   -0.1453 C   0  0  0  0  0  0  0  0  0  0  0  0
   -0.2152   -2.6959   -0.3428 C   0  0  0  0  0  0  0  0  0  0  0  0
   -1.4142   -3.3132   -0.4844 N   0  0  0  0  0  0  0  0  0  0  0  0
   -2.5464   -2.5674   -0.4335 C   0  0  0  0  0  0  0  0  0  0  0  0
   -2.4800   -1.1812   -0.2380 C   0  0  0  0  0  0  0  0  0  0  0  0
   -1.2238   -0.5900   -0.0974 C   0  0  0  0  0  0  0  0  0  0  0  0
   -1.4295    0.7612    0.0806 N   0  0  0  0  0  0  0  0  0  0  0  0
   -2.7694    1.0591    0.0596 C   0  0  0  0  0  0  0  0  0  0  0  0
   -3.4282    2.2785    0.1982 C   0  0  0  0  0  0  0  0  0  0  0  0
   -4.8108    2.2082    0.1241 C   0  0  0  0  0  0  0  0  0  0  0  0
   -5.5201    1.0740   -0.0664 N   0  0  0  0  0  0  0  0  0  0  0  0
   -4.8552   -0.1005   -0.1985 C   0  0  0  0  0  0  0  0  0  0  0  0
   -3.4560   -0.1391   -0.1387 C   0  0  0  0  0  0  0  0  0  0  0  0
    1.4918    0.6157    0.1964 N   0  0  0  0  0  0  0  0  0  0  0  0
    2.8619    0.6699    0.2677 C   0  0  0  0  0  0  0  0  0  0  0  0
    3.7334    1.7496    0.4582 C   0  0  0  0  0  0  0  0  0  0  0  0
    5.8081    2.3128    0.6330 H   0  0  0  0  0  0  0  0  0  0  0  0
    6.6826    0.0183    0.3551 H   0  0  0  0  0  0  0  0  0  0  0  0
    5.1121   -1.9139    0.0137 H   0  0  0  0  0  0  0  0  0  0  0  0
    0.6383   -3.3683   -0.3965 H   0  0  0  0  0  0  0  0  0  0  0  0
   -3.4807   -3.1049   -0.5517 H   0  0  0  0  0  0  0  0  0  0  0  0
   -0.6776    1.4288    0.2083 H   0  0  0  0  0  0  0  0  0  0  0  0
   -2.9079    3.2147    0.3524 H   0  0  0  0  0  0  0  0  0  0  0  0
   -5.4124    3.1088    0.2211 H   0  0  0  0  0  0  0  0  0  0  0  0
   -5.4670   -0.9825   -0.3494 H   0  0  0  0  0  0  0  0  0  0  0  0
    3.3497    2.7563    0.5801 H   0  0  0  0  0  0  0  0  0  0  0  0
  1  2  2  0
  2  3  1  0
  3  4  2  0
  4  5  1  0
  5  6  1  0
  6  7  1  0
  7  8  2  0
  8  9  1  0
  9 10  2  0
 10 11  1  0
 11 12  2  0
 12 13  1  0
 13 14  1  0
 14 15  2  0
 15 16  1  0
 16 17  2  0
 17 18  1  0
 18 19  2  0
  6 20  2  0
 20 21  1  0
 21 22  2  0
 22  1  1  0
 21  4  1  0
 12  7  1  0
 19 14  1  0
 19 11  1  0
  1 23  1  0
  2 24  1  0
  3 25  1  0
  8 26  1  0
 10 27  1  0
 13 28  1  0
 15 29  1  0
 16 30  1  0
 18 31  1  0
 22 32  1  0
M  END
