
     RDKit          3D

 26 29  0  0  0  0  0  0  0  0999 V2000
   -5.1579    0.5046   -0.9564 C   0  0  0  0  0  0  0  0  0  0  0  0
   -5.2674   -0.2364    0.2278 C   0  0  0  0  0  0  0  0  0  0  0  0
   -4.1324   -0.6651    0.9272 C   0  0  0  0  0  0  0  0  0  0  0  0
   -2.9117   -0.3069    0.3689 C   0  0  0  0  0  0  0  0  0  0  0  0
   -1.6694   -0.5953    0.8451 O   0  0  0  0  0  0  0  0  0  0  0  0
   -0.8025   -0.0187   -0.0668 C   0  0  0  0  0  0  0  0  0  0  0  0
    0.6351   -0.0879    0.0610 C   0  0  0  0  0  0  0  0  0  0  0  0
    1.4674    0.4584   -0.8028 N   0  0  0  0  0  0  0  0  0  0  0  0
    2.7755    0.2269   -0.4168 C   0  0  0  0  0  0  0  0  0  0  0  0
    3.9281    0.6632   -1.1009 C   0  0  0  0  0  0  0  0  0  0  0  0
    5.1956    0.3566   -0.5952 C   0  0  0  0  0  0  0  0  0  0  0  0
    5.3266   -0.3769    0.5797 C   0  0  0  0  0  0  0  0  0  0  0  0
    4.1989   -0.8214    1.2771 C   0  0  0  0  0  0  0  0  0  0  0  0
    2.9310   -0.5075    0.7597 C   0  0  0  0  0  0  0  0  0  0  0  0
    1.3760   -0.9062    1.3789 S   0  0  0  0  0  0  0  0  0  0  0  0
   -1.4285    0.5986   -1.0619 N   0  0  0  0  0  0  0  0  0  0  0  0
   -2.7603    0.4222   -0.7957 C   0  0  0  0  0  0  0  0  0  0  0  0
   -3.9033    0.8449   -1.4856 C   0  0  0  0  0  0  0  0  0  0  0  0
   -6.0594    0.8230   -1.4765 H   0  0  0  0  0  0  0  0  0  0  0  0
   -6.2553   -0.4843    0.6125 H   0  0  0  0  0  0  0  0  0  0  0  0
   -4.1969   -1.2383    1.8433 H   0  0  0  0  0  0  0  0  0  0  0  0
    3.8203    1.2353   -2.0173 H   0  0  0  0  0  0  0  0  0  0  0  0
    6.0820    0.6955   -1.1266 H   0  0  0  0  0  0  0  0  0  0  0  0
    6.3187   -0.6086    0.9622 H   0  0  0  0  0  0  0  0  0  0  0  0
    4.3031   -1.3938    2.1939 H   0  0  0  0  0  0  0  0  0  0  0  0
   -3.8133    1.4182   -2.4016 H   0  0  0  0  0  0  0  0  0  0  0  0
  1  2  2  0
  2  3  1  0
  3  4  2  0
  4  5  1  0
  5  6  1  0
  6  7  1  0
  7  8  2  0
  8  9  1  0
  9 10  2  0
 10 11  1  0
 11 12  2  0
 12 13  1  0
 13 14  2  0
 14 15  1  0
  6 16  2  0
 16 17  1  0
 17 18  2  0
 18  1  1  0
 17  4  1  0
 15  7  1  0
 14  9  1  0
  1 19  1  0
  2 20  1  0
  3 21  1  0
 10 22  1  0
 11 23  1  0
 12 24  1  0
 13 25  1  0
 18 26  1  0
M  END
