
     RDKit          3D

 32 35  0  0  0  0  0  0  0  0999 V2000
    6.2853    0.6278   -0.2843 C   0  0  0  0  0  0  0  0  0  0  0  0
    6.3514   -0.2025   -1.3987 C   0  0  0  0  0  0  0  0  0  0  0  0
    5.1918   -0.7594   -1.9473 C   0  0  0  0  0  0  0  0  0  0  0  0
    3.9597   -0.4579   -1.3433 C   0  0  0  0  0  0  0  0  0  0  0  0
    2.3814   -0.9796   -1.7762 S   0  0  0  0  0  0  0  0  0  0  0  0
    1.7040   -0.0814   -0.4707 C   0  0  0  0  0  0  0  0  0  0  0  0
    0.2500   -0.0592   -0.2012 C   0  0  0  0  0  0  0  0  0  0  0  0
   -0.2276    0.6952    0.8801 C   0  0  0  0  0  0  0  0  0  0  0  0
   -1.5963    0.7581    1.1896 C   0  0  0  0  0  0  0  0  0  0  0  0
   -2.5562    0.0680    0.4309 C   0  0  0  0  0  0  0  0  0  0  0  0
   -4.0107    0.1096    0.7263 C   0  0  0  0  0  0  0  0  0  0  0  0
   -4.5871    0.8281    1.7760 C   0  0  0  0  0  0  0  0  0  0  0  0
   -5.9223    0.8573    2.0351 N   0  0  0  0  0  0  0  0  0  0  0  0
   -6.6857    0.1304    1.1953 C   0  0  0  0  0  0  0  0  0  0  0  0
   -6.1429   -0.5894    0.1496 C   0  0  0  0  0  0  0  0  0  0  0  0
   -4.8133   -0.6147   -0.1035 N   0  0  0  0  0  0  0  0  0  0  0  0
   -2.0648   -0.6861   -0.6522 C   0  0  0  0  0  0  0  0  0  0  0  0
   -0.6968   -0.7509   -0.9641 C   0  0  0  0  0  0  0  0  0  0  0  0
    2.5888    0.5753    0.2560 N   0  0  0  0  0  0  0  0  0  0  0  0
    3.8694    0.3711   -0.2267 C   0  0  0  0  0  0  0  0  0  0  0  0
    5.0524    0.9204    0.3081 C   0  0  0  0  0  0  0  0  0  0  0  0
    7.1956    1.0536    0.1313 H   0  0  0  0  0  0  0  0  0  0  0  0
    7.3166   -0.4225   -1.8503 H   0  0  0  0  0  0  0  0  0  0  0  0
    5.2444   -1.4072   -2.8170 H   0  0  0  0  0  0  0  0  0  0  0  0
    0.4734    1.2511    1.5030 H   0  0  0  0  0  0  0  0  0  0  0  0
   -1.8761    1.3670    2.0448 H   0  0  0  0  0  0  0  0  0  0  0  0
   -3.9992    1.4207    2.4661 H   0  0  0  0  0  0  0  0  0  0  0  0
   -7.7524    0.1415    1.3862 H   0  0  0  0  0  0  0  0  0  0  0  0
   -6.7644   -1.1714   -0.5210 H   0  0  0  0  0  0  0  0  0  0  0  0
   -2.7576   -1.2456   -1.2813 H   0  0  0  0  0  0  0  0  0  0  0  0
   -0.4066   -1.3576   -1.8181 H   0  0  0  0  0  0  0  0  0  0  0  0
    4.9955    1.5676    1.1776 H   0  0  0  0  0  0  0  0  0  0  0  0
  1  2  2  0
  2  3  1  0
  3  4  2  0
  4  5  1  0
  5  6  1  0
  6  7  1  0
  7  8  2  0
  8  9  1  0
  9 10  2  0
 10 11  1  0
 11 12  2  0
 12 13  1  0
 13 14  2  0
 14 15  1  0
 15 16  2  0
 10 17  1  0
 17 18  2  0
  6 19  2  0
 19 20  1  0
 20 21  2  0
 21  1  1  0
 20  4  1  0
 18  7  1  0
 16 11  1  0
  1 22  1  0
  2 23  1  0
  3 24  1  0
  8 25  1  0
  9 26  1  0
 12 27  1  0
 14 28  1  0
 15 29  1  0
 17 30  1  0
 18 31  1  0
 21 32  1  0
M  END
