
     RDKit          3D

 27 30  0  0  0  0  0  0  0  0999 V2000
    4.8821   -0.8151    0.4606 C   0  0  0  0  0  0  0  0  0  0  0  0
    5.0026    0.2142   -0.4626 C   0  0  0  0  0  0  0  0  0  0  0  0
    3.8680    0.8690   -0.9472 C   0  0  0  0  0  0  0  0  0  0  0  0
    2.5998    0.4679   -0.4838 C   0  0  0  0  0  0  0  0  0  0  0  0
    1.0780    1.1192   -0.9324 S   0  0  0  0  0  0  0  0  0  0  0  0
    0.1904    0.0558    0.0861 C   0  0  0  0  0  0  0  0  0  0  0  0
   -1.2940    0.1120    0.1622 C   0  0  0  0  0  0  0  0  0  0  0  0
   -1.9911   -0.7770    1.0096 C   0  0  0  0  0  0  0  0  0  0  0  0
   -3.3910   -0.7818    1.1325 C   0  0  0  0  0  0  0  0  0  0  0  0
   -4.0778    0.1512    0.3635 C   0  0  0  0  0  0  0  0  0  0  0  0
   -5.4011    0.4530    0.2082 N   0  0  0  0  0  0  0  0  0  0  0  0
   -5.5874    1.4558   -0.6652 N   0  0  0  0  0  0  0  0  0  0  0  0
   -4.3903    1.8311   -1.0995 N   0  0  0  0  0  0  0  0  0  0  0  0
   -3.4494    1.0480   -0.4849 C   0  0  0  0  0  0  0  0  0  0  0  0
   -2.0496    1.0350   -0.5921 C   0  0  0  0  0  0  0  0  0  0  0  0
    1.0693   -0.7820    0.7547 C   0  0  0  0  0  0  0  0  0  0  0  0
    2.4537   -0.5619    0.4420 C   0  0  0  0  0  0  0  0  0  0  0  0
    3.6203   -1.2086    0.9166 C   0  0  0  0  0  0  0  0  0  0  0  0
    5.7712   -1.3188    0.8319 H   0  0  0  0  0  0  0  0  0  0  0  0
    5.9869    0.5155   -0.8133 H   0  0  0  0  0  0  0  0  0  0  0  0
    3.9638    1.6745   -1.6697 H   0  0  0  0  0  0  0  0  0  0  0  0
   -1.4475   -1.5048    1.6087 H   0  0  0  0  0  0  0  0  0  0  0  0
   -3.8971   -1.4778    1.7926 H   0  0  0  0  0  0  0  0  0  0  0  0
   -6.2104    0.0338    0.6485 H   0  0  0  0  0  0  0  0  0  0  0  0
   -1.5931    1.7509   -1.2656 H   0  0  0  0  0  0  0  0  0  0  0  0
    0.7553   -1.5432    1.4565 H   0  0  0  0  0  0  0  0  0  0  0  0
    3.5381   -2.0160    1.6398 H   0  0  0  0  0  0  0  0  0  0  0  0
  1  2  2  0
  2  3  1  0
  3  4  2  0
  4  5  1  0
  5  6  1  0
  6  7  1  0
  7  8  2  0
  8  9  1  0
  9 10  2  0
 10 11  1  0
 11 12  1  0
 12 13  2  0
 13 14  1  0
 14 15  2  0
  6 16  2  0
 16 17  1  0
 17 18  2  0
 18  1  1  0
 17  4  1  0
 15  7  1  0
 14 10  1  0
  1 19  1  0
  2 20  1  0
  3 21  1  0
  8 22  1  0
  9 23  1  0
 11 24  1  0
 15 25  1  0
 16 26  1  0
 18 27  1  0
M  END
