
     RDKit          3D

 26 29  0  0  0  0  0  0  0  0999 V2000
    4.6699    0.9648   -0.8659 C   0  0  0  0  0  0  0  0  0  0  0  0
    5.0052   -0.2714   -0.3226 C   0  0  0  0  0  0  0  0  0  0  0  0
    4.0158   -1.1363    0.1555 C   0  0  0  0  0  0  0  0  0  0  0  0
    2.6755   -0.7234    0.0723 C   0  0  0  0  0  0  0  0  0  0  0  0
    1.2524   -1.5484    0.5667 S   0  0  0  0  0  0  0  0  0  0  0  0
    0.2783   -0.2295    0.0364 C   0  0  0  0  0  0  0  0  0  0  0  0
   -1.1974   -0.2386    0.1588 C   0  0  0  0  0  0  0  0  0  0  0  0
   -1.9155    0.8864   -0.3027 C   0  0  0  0  0  0  0  0  0  0  0  0
   -3.3138    0.9797   -0.2337 C   0  0  0  0  0  0  0  0  0  0  0  0
   -3.9713   -0.1129    0.3228 C   0  0  0  0  0  0  0  0  0  0  0  0
   -5.2865   -0.3979    0.5596 N   0  0  0  0  0  0  0  0  0  0  0  0
   -5.4432   -1.6042    1.1285 N   0  0  0  0  0  0  0  0  0  0  0  0
   -4.2349   -2.1340    1.2761 N   0  0  0  0  0  0  0  0  0  0  0  0
   -3.3166   -1.2414    0.7910 C   0  0  0  0  0  0  0  0  0  0  0  0
   -1.9170   -1.3160    0.7133 C   0  0  0  0  0  0  0  0  0  0  0  0
    0.9582    0.7760   -0.4817 N   0  0  0  0  0  0  0  0  0  0  0  0
    2.3162    0.5100   -0.4677 C   0  0  0  0  0  0  0  0  0  0  0  0
    3.3317    1.3645   -0.9431 C   0  0  0  0  0  0  0  0  0  0  0  0
    5.4505    1.6267   -1.2336 H   0  0  0  0  0  0  0  0  0  0  0  0
    6.0500   -0.5707   -0.2682 H   0  0  0  0  0  0  0  0  0  0  0  0
    4.2784   -2.1008    0.5793 H   0  0  0  0  0  0  0  0  0  0  0  0
   -1.3684    1.7268   -0.7341 H   0  0  0  0  0  0  0  0  0  0  0  0
   -3.8396    1.8563   -0.5960 H   0  0  0  0  0  0  0  0  0  0  0  0
   -6.1082    0.1614    0.3674 H   0  0  0  0  0  0  0  0  0  0  0  0
   -1.4350   -2.2114    1.0877 H   0  0  0  0  0  0  0  0  0  0  0  0
    3.0651    2.3279   -1.3660 H   0  0  0  0  0  0  0  0  0  0  0  0
  1  2  2  0
  2  3  1  0
  3  4  2  0
  4  5  1  0
  5  6  1  0
  6  7  1  0
  7  8  2  0
  8  9  1  0
  9 10  2  0
 10 11  1  0
 11 12  1  0
 12 13  2  0
 13 14  1  0
 14 15  2  0
  6 16  2  0
 16 17  1  0
 17 18  2  0
 18  1  1  0
 17  4  1  0
 15  7  1  0
 14 10  1  0
  1 19  1  0
  2 20  1  0
  3 21  1  0
  8 22  1  0
  9 23  1  0
 11 24  1  0
 15 25  1  0
 18 26  1  0
M  END
