
     RDKit          3D

 34 38  0  0  0  0  0  0  0  0999 V2000
    6.3509    0.6825   -0.6998 C   0  0  0  0  0  0  0  0  0  0  0  0
    6.5802   -0.3423    0.2075 C   0  0  0  0  0  0  0  0  0  0  0  0
    5.5109   -1.0092    0.8097 C   0  0  0  0  0  0  0  0  0  0  0  0
    4.1961   -0.6248    0.4812 C   0  0  0  0  0  0  0  0  0  0  0  0
    2.7378   -1.2930    1.0882 S   0  0  0  0  0  0  0  0  0  0  0  0
    1.7351   -0.2435    0.1664 C   0  0  0  0  0  0  0  0  0  0  0  0
    0.2508   -0.3153    0.2443 C   0  0  0  0  0  0  0  0  0  0  0  0
   -0.4155   -1.2379    1.0696 C   0  0  0  0  0  0  0  0  0  0  0  0
   -1.8175   -1.3054    1.1430 C   0  0  0  0  0  0  0  0  0  0  0  0
   -2.5944   -0.4259    0.3698 C   0  0  0  0  0  0  0  0  0  0  0  0
   -1.9339    0.4896   -0.4491 C   0  0  0  0  0  0  0  0  0  0  0  0
   -0.5335    0.5650   -0.5294 C   0  0  0  0  0  0  0  0  0  0  0  0
   -2.9021    1.2262   -1.0935 N   0  0  0  0  0  0  0  0  0  0  0  0
   -4.1475    0.8137   -0.7155 C   0  0  0  0  0  0  0  0  0  0  0  0
   -5.2955    1.3446   -1.1757 N   0  0  0  0  0  0  0  0  0  0  0  0
   -6.3932    0.7585   -0.6449 C   0  0  0  0  0  0  0  0  0  0  0  0
   -6.3924   -0.2806    0.2773 C   0  0  0  0  0  0  0  0  0  0  0  0
   -5.1717   -0.7924    0.7198 C   0  0  0  0  0  0  0  0  0  0  0  0
   -3.9977   -0.2199    0.2004 C   0  0  0  0  0  0  0  0  0  0  0  0
    2.5292    0.6025   -0.5921 C   0  0  0  0  0  0  0  0  0  0  0  0
    3.9411    0.4001   -0.4261 C   0  0  0  0  0  0  0  0  0  0  0  0
    5.0435    1.0593   -1.0217 C   0  0  0  0  0  0  0  0  0  0  0  0
    7.1897    1.1958   -1.1635 H   0  0  0  0  0  0  0  0  0  0  0  0
    7.5996   -0.6305    0.4536 H   0  0  0  0  0  0  0  0  0  0  0  0
    5.6918   -1.8111    1.5197 H   0  0  0  0  0  0  0  0  0  0  0  0
    0.1386   -1.9404    1.6878 H   0  0  0  0  0  0  0  0  0  0  0  0
   -2.2913   -2.0342    1.7943 H   0  0  0  0  0  0  0  0  0  0  0  0
   -0.0812    1.2999   -1.1860 H   0  0  0  0  0  0  0  0  0  0  0  0
   -2.7400    1.9694   -1.7547 H   0  0  0  0  0  0  0  0  0  0  0  0
   -7.3362    1.1685   -0.9997 H   0  0  0  0  0  0  0  0  0  0  0  0
   -7.3279   -0.6866    0.6467 H   0  0  0  0  0  0  0  0  0  0  0  0
   -5.1320   -1.6031    1.4391 H   0  0  0  0  0  0  0  0  0  0  0  0
    2.1329    1.3573   -1.2583 H   0  0  0  0  0  0  0  0  0  0  0  0
    4.8756    1.8633   -1.7337 H   0  0  0  0  0  0  0  0  0  0  0  0
  1  2  2  0
  2  3  1  0
  3  4  2  0
  4  5  1  0
  5  6  1  0
  6  7  1  0
  7  8  2  0
  8  9  1  0
  9 10  2  0
 10 11  1  0
 11 12  2  0
 11 13  1  0
 13 14  1  0
 14 15  2  0
 15 16  1  0
 16 17  2  0
 17 18  1  0
 18 19  2  0
  6 20  2  0
 20 21  1  0
 21 22  2  0
 22  1  1  0
 21  4  1  0
 12  7  1  0
 19 14  1  0
 19 10  1  0
  1 23  1  0
  2 24  1  0
  3 25  1  0
  8 26  1  0
  9 27  1  0
 12 28  1  0
 13 29  1  0
 16 30  1  0
 17 31  1  0
 18 32  1  0
 20 33  1  0
 22 34  1  0
M  END
