
     RDKit          3D

 33 37  0  0  0  0  0  0  0  0999 V2000
   -6.3367   -1.1391    0.0052 C   0  0  0  0  0  0  0  0  0  0  0  0
   -6.5701    0.2323   -0.0140 C   0  0  0  0  0  0  0  0  0  0  0  0
   -5.5065    1.1400   -0.0424 C   0  0  0  0  0  0  0  0  0  0  0  0
   -4.1975    0.6298   -0.0510 C   0  0  0  0  0  0  0  0  0  0  0  0
   -2.7026    1.4750   -0.0839 S   0  0  0  0  0  0  0  0  0  0  0  0
   -1.8352   -0.0148   -0.0709 C   0  0  0  0  0  0  0  0  0  0  0  0
   -0.3542   -0.0663   -0.0891 C   0  0  0  0  0  0  0  0  0  0  0  0
    0.2695   -1.3259   -0.0767 C   0  0  0  0  0  0  0  0  0  0  0  0
    1.6652   -1.4694   -0.0923 C   0  0  0  0  0  0  0  0  0  0  0  0
    2.4749   -0.3200   -0.1214 C   0  0  0  0  0  0  0  0  0  0  0  0
    1.8522    0.9294   -0.1337 C   0  0  0  0  0  0  0  0  0  0  0  0
    0.4561    1.0856   -0.1183 C   0  0  0  0  0  0  0  0  0  0  0  0
    2.8507    1.8771   -0.1619 N   0  0  0  0  0  0  0  0  0  0  0  0
    4.0781    1.2790   -0.1680 C   0  0  0  0  0  0  0  0  0  0  0  0
    5.2470    1.9456   -0.1939 N   0  0  0  0  0  0  0  0  0  0  0  0
    6.3199    1.1215   -0.1943 C   0  0  0  0  0  0  0  0  0  0  0  0
    6.2764   -0.2669   -0.1712 C   0  0  0  0  0  0  0  0  0  0  0  0
    5.0355   -0.9051   -0.1449 C   0  0  0  0  0  0  0  0  0  0  0  0
    3.8859   -0.0963   -0.1432 C   0  0  0  0  0  0  0  0  0  0  0  0
   -2.6014   -1.0893   -0.0436 N   0  0  0  0  0  0  0  0  0  0  0  0
   -3.9400   -0.7396   -0.0321 C   0  0  0  0  0  0  0  0  0  0  0  0
   -5.0287   -1.6346   -0.0035 C   0  0  0  0  0  0  0  0  0  0  0  0
   -7.1738   -1.8329    0.0273 H   0  0  0  0  0  0  0  0  0  0  0  0
   -7.5923    0.6051   -0.0069 H   0  0  0  0  0  0  0  0  0  0  0  0
   -5.6897    2.2100   -0.0574 H   0  0  0  0  0  0  0  0  0  0  0  0
   -0.3398   -2.2297   -0.0541 H   0  0  0  0  0  0  0  0  0  0  0  0
    2.1091   -2.4607   -0.0819 H   0  0  0  0  0  0  0  0  0  0  0  0
    0.0331    2.0846   -0.1291 H   0  0  0  0  0  0  0  0  0  0  0  0
    2.7199    2.8764   -0.1765 H   0  0  0  0  0  0  0  0  0  0  0  0
    7.2791    1.6342   -0.2150 H   0  0  0  0  0  0  0  0  0  0  0  0
    7.1945   -0.8444   -0.1736 H   0  0  0  0  0  0  0  0  0  0  0  0
    4.9626   -1.9871   -0.1263 H   0  0  0  0  0  0  0  0  0  0  0  0
   -4.8410   -2.7035    0.0114 H   0  0  0  0  0  0  0  0  0  0  0  0
  1  2  2  0
  2  3  1  0
  3  4  2  0
  4  5  1  0
  5  6  1  0
  6  7  1  0
  7  8  2  0
  8  9  1  0
  9 10  2  0
 10 11  1  0
 11 12  2  0
 11 13  1  0
 13 14  1  0
 14 15  2  0
 15 16  1  0
 16 17  2  0
 17 18  1  0
 18 19  2  0
  6 20  2  0
 20 21  1  0
 21 22  2  0
 22  1  1  0
 21  4  1  0
 12  7  1  0
 19 14  1  0
 19 10  1  0
  1 23  1  0
  2 24  1  0
  3 25  1  0
  8 26  1  0
  9 27  1  0
 12 28  1  0
 13 29  1  0
 16 30  1  0
 17 31  1  0
 18 32  1  0
 22 33  1  0
M  END
