
     RDKit          3D

 29 32  0  0  0  0  0  0  0  0999 V2000
    5.3639    0.8506   -0.3445 C   0  0  0  0  0  0  0  0  0  0  0  0
    5.4357   -0.5352   -0.3668 C   0  0  0  0  0  0  0  0  0  0  0  0
    4.2725   -1.3068   -0.3177 C   0  0  0  0  0  0  0  0  0  0  0  0
    3.0255   -0.6557   -0.2453 C   0  0  0  0  0  0  0  0  0  0  0  0
    1.4758   -1.3874   -0.1760 S   0  0  0  0  0  0  0  0  0  0  0  0
    0.6410    0.1136   -0.1133 C   0  0  0  0  0  0  0  0  0  0  0  0
   -0.8407    0.1755   -0.0368 C   0  0  0  0  0  0  0  0  0  0  0  0
   -1.4960    1.4129    0.0131 C   0  0  0  0  0  0  0  0  0  0  0  0
   -2.8917    1.4902    0.0854 C   0  0  0  0  0  0  0  0  0  0  0  0
   -3.6765    0.3498    0.1103 C   0  0  0  0  0  0  0  0  0  0  0  0
   -5.0178    0.4648    0.1803 N   0  0  0  0  0  0  0  0  0  0  0  0
   -5.7170   -0.6900    0.2007 C   0  0  0  0  0  0  0  0  0  0  0  0
   -5.1009   -1.9228    0.1528 C   0  0  0  0  0  0  0  0  0  0  0  0
   -3.7588   -2.0545    0.0825 N   0  0  0  0  0  0  0  0  0  0  0  0
   -3.0415   -0.9126    0.0611 C   0  0  0  0  0  0  0  0  0  0  0  0
   -1.6514   -0.9733   -0.0107 C   0  0  0  0  0  0  0  0  0  0  0  0
    1.5569    1.1532   -0.1461 C   0  0  0  0  0  0  0  0  0  0  0  0
    2.9282    0.7332   -0.2217 C   0  0  0  0  0  0  0  0  0  0  0  0
    4.1231    1.4910   -0.2726 C   0  0  0  0  0  0  0  0  0  0  0  0
    6.2750    1.4427   -0.3832 H   0  0  0  0  0  0  0  0  0  0  0  0
    6.4040   -1.0271   -0.4228 H   0  0  0  0  0  0  0  0  0  0  0  0
    4.3302   -2.3914   -0.3353 H   0  0  0  0  0  0  0  0  0  0  0  0
   -0.9422    2.3477   -0.0027 H   0  0  0  0  0  0  0  0  0  0  0  0
   -3.3752    2.4634    0.1230 H   0  0  0  0  0  0  0  0  0  0  0  0
   -6.7950   -0.5941    0.2570 H   0  0  0  0  0  0  0  0  0  0  0  0
   -5.6701   -2.8449    0.1696 H   0  0  0  0  0  0  0  0  0  0  0  0
   -1.2144   -1.9683   -0.0463 H   0  0  0  0  0  0  0  0  0  0  0  0
    1.2783    2.1984   -0.1179 H   0  0  0  0  0  0  0  0  0  0  0  0
    4.0790    2.5770   -0.2558 H   0  0  0  0  0  0  0  0  0  0  0  0
  1  2  2  0
  2  3  1  0
  3  4  2  0
  4  5  1  0
  5  6  1  0
  6  7  1  0
  7  8  2  0
  8  9  1  0
  9 10  2  0
 10 11  1  0
 11 12  2  0
 12 13  1  0
 13 14  2  0
 14 15  1  0
 15 16  2  0
  6 17  2  0
 17 18  1  0
 18 19  2  0
 19  1  1  0
 18  4  1  0
 16  7  1  0
 15 10  1  0
  1 20  1  0
  2 21  1  0
  3 22  1  0
  8 23  1  0
  9 24  1  0
 12 25  1  0
 13 26  1  0
 16 27  1  0
 17 28  1  0
 19 29  1  0
M  END
