
     RDKit          3D

 28 31  0  0  0  0  0  0  0  0999 V2000
   -5.0500    0.3126   -1.1860 C   0  0  0  0  0  0  0  0  0  0  0  0
   -5.4679   -0.3005   -0.0091 C   0  0  0  0  0  0  0  0  0  0  0  0
   -4.5401   -0.7172    0.9507 C   0  0  0  0  0  0  0  0  0  0  0  0
   -3.1759   -0.5000    0.6943 C   0  0  0  0  0  0  0  0  0  0  0  0
   -1.8123   -0.8924    1.6628 S   0  0  0  0  0  0  0  0  0  0  0  0
   -0.7530   -0.2318    0.4752 C   0  0  0  0  0  0  0  0  0  0  0  0
    0.7158   -0.2212    0.6476 C   0  0  0  0  0  0  0  0  0  0  0  0
    1.3716   -0.7371    1.7710 C   0  0  0  0  0  0  0  0  0  0  0  0
    2.7674   -0.6918    1.8642 C   0  0  0  0  0  0  0  0  0  0  0  0
    3.5432   -0.1394    0.8567 C   0  0  0  0  0  0  0  0  0  0  0  0
    4.8843   -0.1161    0.9868 N   0  0  0  0  0  0  0  0  0  0  0  0
    5.5752    0.4368   -0.0331 C   0  0  0  0  0  0  0  0  0  0  0  0
    4.9512    0.9517   -1.1501 C   0  0  0  0  0  0  0  0  0  0  0  0
    3.6090    0.9361   -1.2959 N   0  0  0  0  0  0  0  0  0  0  0  0
    2.9002    0.3880   -0.2882 C   0  0  0  0  0  0  0  0  0  0  0  0
    1.5126    0.3367   -0.3683 C   0  0  0  0  0  0  0  0  0  0  0  0
   -1.3628    0.2568   -0.5872 N   0  0  0  0  0  0  0  0  0  0  0  0
   -2.7345    0.1120   -0.4773 C   0  0  0  0  0  0  0  0  0  0  0  0
   -3.6888    0.5233   -1.4297 C   0  0  0  0  0  0  0  0  0  0  0  0
   -5.7832    0.6314   -1.9233 H   0  0  0  0  0  0  0  0  0  0  0  0
   -6.5298   -0.4585    0.1683 H   0  0  0  0  0  0  0  0  0  0  0  0
   -4.8675   -1.1956    1.8687 H   0  0  0  0  0  0  0  0  0  0  0  0
    0.8245   -1.1842    2.5973 H   0  0  0  0  0  0  0  0  0  0  0  0
    3.2607   -1.0975    2.7446 H   0  0  0  0  0  0  0  0  0  0  0  0
    6.6534    0.4539    0.0749 H   0  0  0  0  0  0  0  0  0  0  0  0
    5.5138    1.3937   -1.9641 H   0  0  0  0  0  0  0  0  0  0  0  0
    1.0402    0.7492   -1.2596 H   0  0  0  0  0  0  0  0  0  0  0  0
   -3.3574    1.0012   -2.3462 H   0  0  0  0  0  0  0  0  0  0  0  0
  1  2  2  0
  2  3  1  0
  3  4  2  0
  4  5  1  0
  5  6  1  0
  6  7  1  0
  7  8  2  0
  8  9  1  0
  9 10  2  0
 10 11  1  0
 11 12  2  0
 12 13  1  0
 13 14  2  0
 14 15  1  0
 15 16  2  0
  6 17  2  0
 17 18  1  0
 18 19  2  0
 19  1  1  0
 18  4  1  0
 16  7  1  0
 15 10  1  0
  1 20  1  0
  2 21  1  0
  3 22  1  0
  8 23  1  0
  9 24  1  0
 12 25  1  0
 13 26  1  0
 16 27  1  0
 19 28  1  0
M  END
