
     RDKit          3D

 29 32  0  0  0  0  0  0  0  0999 V2000
    5.4766   -0.4385   -0.5468 C   0  0  0  0  0  0  0  0  0  0  0  0
    5.4885    0.4344    0.5322 C   0  0  0  0  0  0  0  0  0  0  0  0
    4.2915    0.8964    1.0842 C   0  0  0  0  0  0  0  0  0  0  0  0
    3.0725    0.4622    0.5280 C   0  0  0  0  0  0  0  0  0  0  0  0
    1.4905    0.8916    1.0336 S   0  0  0  0  0  0  0  0  0  0  0  0
    0.7217   -0.0688   -0.1657 C   0  0  0  0  0  0  0  0  0  0  0  0
   -0.7539   -0.1356   -0.2717 C   0  0  0  0  0  0  0  0  0  0  0  0
   -1.3711   -0.9163   -1.2464 C   0  0  0  0  0  0  0  0  0  0  0  0
   -2.7108   -1.0371   -1.4170 N   0  0  0  0  0  0  0  0  0  0  0  0
   -3.5020   -0.3466   -0.5763 C   0  0  0  0  0  0  0  0  0  0  0  0
   -4.8802   -0.4291   -0.7001 C   0  0  0  0  0  0  0  0  0  0  0  0
   -5.7193    0.2765    0.1585 C   0  0  0  0  0  0  0  0  0  0  0  0
   -5.1351    1.0586    1.1344 C   0  0  0  0  0  0  0  0  0  0  0  0
   -3.8003    1.1724    1.2963 N   0  0  0  0  0  0  0  0  0  0  0  0
   -3.0068    0.4791    0.4521 C   0  0  0  0  0  0  0  0  0  0  0  0
   -1.6253    0.5627    0.5773 C   0  0  0  0  0  0  0  0  0  0  0  0
    1.6817   -0.7049   -0.9366 C   0  0  0  0  0  0  0  0  0  0  0  0
    3.0352   -0.4132   -0.5545 C   0  0  0  0  0  0  0  0  0  0  0  0
    4.2632   -0.8659   -1.0944 C   0  0  0  0  0  0  0  0  0  0  0  0
    6.4137   -0.7926   -0.9696 H   0  0  0  0  0  0  0  0  0  0  0  0
    6.4358    0.7629    0.9533 H   0  0  0  0  0  0  0  0  0  0  0  0
    4.3026    1.5796    1.9287 H   0  0  0  0  0  0  0  0  0  0  0  0
   -0.7975   -1.5010   -1.9599 H   0  0  0  0  0  0  0  0  0  0  0  0
   -5.3049   -1.0549   -1.4803 H   0  0  0  0  0  0  0  0  0  0  0  0
   -6.7974    0.2140    0.0641 H   0  0  0  0  0  0  0  0  0  0  0  0
   -5.7386    1.6316    1.8329 H   0  0  0  0  0  0  0  0  0  0  0  0
   -1.2464    1.2005    1.3716 H   0  0  0  0  0  0  0  0  0  0  0  0
    1.4494   -1.3681   -1.7600 H   0  0  0  0  0  0  0  0  0  0  0  0
    4.2667   -1.5497   -1.9395 H   0  0  0  0  0  0  0  0  0  0  0  0
  1  2  2  0
  2  3  1  0
  3  4  2  0
  4  5  1  0
  5  6  1  0
  6  7  1  0
  7  8  2  0
  8  9  1  0
  9 10  2  0
 10 11  1  0
 11 12  2  0
 12 13  1  0
 13 14  2  0
 14 15  1  0
 15 16  2  0
  6 17  2  0
 17 18  1  0
 18 19  2  0
 19  1  1  0
 18  4  1  0
 16  7  1  0
 15 10  1  0
  1 20  1  0
  2 21  1  0
  3 22  1  0
  8 23  1  0
 11 24  1  0
 12 25  1  0
 13 26  1  0
 16 27  1  0
 17 28  1  0
 19 29  1  0
M  END
