
     RDKit          3D

 21 23  0  0  0  0  0  0  0  0999 V2000
   -3.5921   -0.4629   -0.7731 C   0  0  0  0  0  0  0  0  0  0  0  0
   -3.7909    0.2925    0.3742 C   0  0  0  0  0  0  0  0  0  0  0  0
   -2.7023    0.7631    1.1119 C   0  0  0  0  0  0  0  0  0  0  0  0
   -1.3989    0.4590    0.6731 C   0  0  0  0  0  0  0  0  0  0  0  0
    0.0825    0.9271    1.4144 S   0  0  0  0  0  0  0  0  0  0  0  0
    1.0175    0.1388    0.2307 C   0  0  0  0  0  0  0  0  0  0  0  0
    2.5899    0.1325    0.2507 C   0  0  0  0  0  0  0  0  0  0  0  0
    3.3688   -0.4998   -0.6981 C   0  0  0  0  0  0  0  0  0  0  0  0
    5.0319   -0.2809   -0.3331 S   0  0  0  0  0  0  0  0  0  0  0  0
    4.5846    0.6308    1.0477 C   0  0  0  0  0  0  0  0  0  0  0  0
    3.2952    0.7801    1.2508 N   0  0  0  0  0  0  0  0  0  0  0  0
    0.2325   -0.4746   -0.7188 C   0  0  0  0  0  0  0  0  0  0  0  0
   -1.1734   -0.2993   -0.4782 C   0  0  0  0  0  0  0  0  0  0  0  0
   -2.2965   -0.7625   -1.2053 C   0  0  0  0  0  0  0  0  0  0  0  0
   -4.4468   -0.8243   -1.3400 H   0  0  0  0  0  0  0  0  0  0  0  0
   -4.8015    0.5215    0.7042 H   0  0  0  0  0  0  0  0  0  0  0  0
   -2.8594    1.3543    2.0097 H   0  0  0  0  0  0  0  0  0  0  0  0
    3.0646   -1.0653   -1.5656 H   0  0  0  0  0  0  0  0  0  0  0  0
    5.3263    1.0568    1.7107 H   0  0  0  0  0  0  0  0  0  0  0  0
    0.6227   -1.0316   -1.5602 H   0  0  0  0  0  0  0  0  0  0  0  0
   -2.1546   -1.3551   -2.1056 H   0  0  0  0  0  0  0  0  0  0  0  0
  1  2  2  0
  2  3  1  0
  3  4  2  0
  4  5  1  0
  5  6  1  0
  6  7  1  0
  7  8  2  0
  8  9  1  0
  9 10  1  0
 10 11  2  0
  6 12  2  0
 12 13  1  0
 13 14  2  0
 14  1  1  0
 13  4  1  0
 11  7  1  0
  1 15  1  0
  2 16  1  0
  3 17  1  0
  8 18  1  0
 10 19  1  0
 12 20  1  0
 14 21  1  0
M  END
