
     RDKit          3D

 43 48  0  0  0  0  0  0  0  0999 V2000
    5.3371    1.0579   -0.9872 C   0  0  0  0  0  0  0  0  0  0  0  0
    6.7553    0.9475   -0.4974 C   0  0  0  0  0  0  0  0  0  0  0  0
    6.7812    0.3073    0.6801 C   0  0  0  0  0  0  0  0  0  0  0  0
    5.4374   -0.0374    1.0671 C   0  0  0  0  0  0  0  0  0  0  0  0
    4.5792    0.3785    0.1208 C   0  0  0  0  0  0  0  0  0  0  0  0
    3.1360    0.2710    0.1728 C   0  0  0  0  0  0  0  0  0  0  0  0
    2.3465    0.7306    1.2582 C   0  0  0  0  0  0  0  0  0  0  0  0
    0.9125    0.6486    1.3095 C   0  0  0  0  0  0  0  0  0  0  0  0
    0.1179    0.0866    0.2829 C   0  0  0  0  0  0  0  0  0  0  0  0
   -1.3178   -0.0258    0.3342 C   0  0  0  0  0  0  0  0  0  0  0  0
   -2.3658    1.3416    0.3764 S   0  0  0  0  0  0  0  0  0  0  0  0
   -3.8295    0.3788    0.4253 C   0  0  0  0  0  0  0  0  0  0  0  0
   -5.1395    0.9847    0.4707 C   0  0  0  0  0  0  0  0  0  0  0  0
   -5.4806    2.2922    0.1625 C   0  0  0  0  0  0  0  0  0  0  0  0
   -6.8722    2.5608    0.3230 C   0  0  0  0  0  0  0  0  0  0  0  0
   -7.5607    1.4513    0.7524 C   0  0  0  0  0  0  0  0  0  0  0  0
   -6.5336    0.1035    0.9573 S   0  0  0  0  0  0  0  0  0  0  0  0
   -3.4368   -0.9205    0.4203 C   0  0  0  0  0  0  0  0  0  0  0  0
   -3.9472   -2.2504    0.4406 C   0  0  0  0  0  0  0  0  0  0  0  0
   -2.8446   -3.1303    0.4150 C   0  0  0  0  0  0  0  0  0  0  0  0
   -1.6400   -2.4366    0.3765 N   0  0  0  0  0  0  0  0  0  0  0  0
   -2.0755   -1.1411    0.3740 C   0  0  0  0  0  0  0  0  0  0  0  0
    0.9041   -0.3723   -0.7815 C   0  0  0  0  0  0  0  0  0  0  0  0
    0.4786   -0.9645   -1.9470 C   0  0  0  0  0  0  0  0  0  0  0  0
    1.6000   -1.2664   -2.6864 N   0  0  0  0  0  0  0  0  0  0  0  0
    2.7359   -0.8751   -2.0107 C   0  0  0  0  0  0  0  0  0  0  0  0
    2.3369   -0.2846   -0.8353 C   0  0  0  0  0  0  0  0  0  0  0  0
    5.0437    2.1075   -1.0901 H   0  0  0  0  0  0  0  0  0  0  0  0
    5.2345    0.5502   -1.9488 H   0  0  0  0  0  0  0  0  0  0  0  0
    7.6156    1.3280   -1.0266 H   0  0  0  0  0  0  0  0  0  0  0  0
    7.6585    0.0829    1.2675 H   0  0  0  0  0  0  0  0  0  0  0  0
    5.1870   -0.5405    1.9889 H   0  0  0  0  0  0  0  0  0  0  0  0
    2.8507    1.1915    2.1090 H   0  0  0  0  0  0  0  0  0  0  0  0
    0.4176    1.0401    2.1993 H   0  0  0  0  0  0  0  0  0  0  0  0
   -4.7669    3.0358   -0.1714 H   0  0  0  0  0  0  0  0  0  0  0  0
   -7.3397    3.5189    0.1325 H   0  0  0  0  0  0  0  0  0  0  0  0
   -8.6189    1.3653    0.9569 H   0  0  0  0  0  0  0  0  0  0  0  0
   -4.9834   -2.5598    0.4713 H   0  0  0  0  0  0  0  0  0  0  0  0
   -2.8272   -4.2126    0.4223 H   0  0  0  0  0  0  0  0  0  0  0  0
   -0.6808   -2.7635    0.3489 H   0  0  0  0  0  0  0  0  0  0  0  0
   -0.5072   -1.2009   -2.3258 H   0  0  0  0  0  0  0  0  0  0  0  0
    1.5920   -1.7166   -3.5928 H   0  0  0  0  0  0  0  0  0  0  0  0
    3.7098   -1.0619   -2.4402 H   0  0  0  0  0  0  0  0  0  0  0  0
  1  2  1  0
  2  3  2  0
  3  4  1  0
  4  5  2  0
  5  6  1  0
  6  7  2  0
  7  8  1  0
  8  9  2  0
  9 10  1  0
 10 11  1  0
 11 12  1  0
 12 13  1  0
 13 14  2  0
 14 15  1  0
 15 16  2  0
 16 17  1  0
 12 18  2  0
 18 19  1  0
 19 20  2  0
 20 21  1  0
 21 22  1  0
  9 23  1  0
 23 24  2  0
 24 25  1  0
 25 26  1  0
 26 27  2  0
  5  1  1  0
 27  6  1  0
 22 10  2  0
 27 23  1  0
 17 13  1  0
 22 18  1  0
  1 28  1  0
  1 29  1  0
  2 30  1  0
  3 31  1  0
  4 32  1  0
  7 33  1  0
  8 34  1  0
 14 35  1  0
 15 36  1  0
 16 37  1  0
 19 38  1  0
 20 39  1  0
 21 40  1  0
 24 41  1  0
 25 42  1  0
 26 43  1  0
M  END
