
     RDKit          3D

 41 45  0  0  0  0  0  0  0  0999 V2000
   -5.7273   -0.2594    1.5666 C   0  0  0  0  0  0  0  0  0  0  0  0
   -7.1562   -0.0092    1.1807 C   0  0  0  0  0  0  0  0  0  0  0  0
   -7.2070    0.4726   -0.0673 C   0  0  0  0  0  0  0  0  0  0  0  0
   -5.8705    0.5791   -0.5936 C   0  0  0  0  0  0  0  0  0  0  0  0
   -4.9767    0.1650    0.3244 C   0  0  0  0  0  0  0  0  0  0  0  0
   -3.5110    0.1064    0.2065 C   0  0  0  0  0  0  0  0  0  0  0  0
   -2.8477    0.5624   -0.9427 C   0  0  0  0  0  0  0  0  0  0  0  0
   -1.4516    0.5063   -1.0483 C   0  0  0  0  0  0  0  0  0  0  0  0
   -0.6798   -0.0110   -0.0053 C   0  0  0  0  0  0  0  0  0  0  0  0
   -1.3290   -0.4646    1.1467 C   0  0  0  0  0  0  0  0  0  0  0  0
   -2.7250   -0.4052    1.2498 C   0  0  0  0  0  0  0  0  0  0  0  0
    0.7662   -0.0844   -0.1153 C   0  0  0  0  0  0  0  0  0  0  0  0
    1.7755    1.3099   -0.2693 S   0  0  0  0  0  0  0  0  0  0  0  0
    3.2571    0.3840   -0.3068 C   0  0  0  0  0  0  0  0  0  0  0  0
    4.5608    1.0361   -0.4071 C   0  0  0  0  0  0  0  0  0  0  0  0
    5.6547    0.5726    0.3315 C   0  0  0  0  0  0  0  0  0  0  0  0
    6.8944    1.2006    0.2180 C   0  0  0  0  0  0  0  0  0  0  0  0
    7.0078    2.2811   -0.6396 C   0  0  0  0  0  0  0  0  0  0  0  0
    5.9843    2.7618   -1.3747 N   0  0  0  0  0  0  0  0  0  0  0  0
    4.7904    2.1296   -1.2409 C   0  0  0  0  0  0  0  0  0  0  0  0
    2.9049   -0.9203   -0.2044 C   0  0  0  0  0  0  0  0  0  0  0  0
    3.4673   -2.2246   -0.1774 C   0  0  0  0  0  0  0  0  0  0  0  0
    2.3987   -3.1391   -0.0634 C   0  0  0  0  0  0  0  0  0  0  0  0
    1.1687   -2.4874   -0.0210 N   0  0  0  0  0  0  0  0  0  0  0  0
    1.5551   -1.1795   -0.1051 C   0  0  0  0  0  0  0  0  0  0  0  0
   -5.4531    0.3506    2.4334 H   0  0  0  0  0  0  0  0  0  0  0  0
   -5.5742   -1.3201    1.7906 H   0  0  0  0  0  0  0  0  0  0  0  0
   -8.0057   -0.1930    1.8206 H   0  0  0  0  0  0  0  0  0  0  0  0
   -8.0979    0.7459   -0.6122 H   0  0  0  0  0  0  0  0  0  0  0  0
   -5.6698    0.9448   -1.5886 H   0  0  0  0  0  0  0  0  0  0  0  0
   -3.4016    0.9755   -1.7815 H   0  0  0  0  0  0  0  0  0  0  0  0
   -0.9763    0.8675   -1.9580 H   0  0  0  0  0  0  0  0  0  0  0  0
   -0.7536   -0.8558    1.9834 H   0  0  0  0  0  0  0  0  0  0  0  0
   -3.1801   -0.7652    2.1690 H   0  0  0  0  0  0  0  0  0  0  0  0
    5.5484   -0.2705    1.0094 H   0  0  0  0  0  0  0  0  0  0  0  0
    7.7493    0.8552    0.7883 H   0  0  0  0  0  0  0  0  0  0  0  0
    7.9521    2.8039   -0.7615 H   0  0  0  0  0  0  0  0  0  0  0  0
    4.0007    2.5449   -1.8617 H   0  0  0  0  0  0  0  0  0  0  0  0
    4.5132   -2.4940   -0.2431 H   0  0  0  0  0  0  0  0  0  0  0  0
    2.4197   -4.2206   -0.0184 H   0  0  0  0  0  0  0  0  0  0  0  0
    0.2250   -2.8516    0.0408 H   0  0  0  0  0  0  0  0  0  0  0  0
  1  2  1  0
  2  3  2  0
  3  4  1  0
  4  5  2  0
  5  6  1  0
  6  7  2  0
  7  8  1  0
  8  9  2  0
  9 10  1  0
 10 11  2  0
  9 12  1  0
 12 13  1  0
 13 14  1  0
 14 15  1  0
 15 16  2  0
 16 17  1  0
 17 18  2  0
 18 19  1  0
 19 20  2  0
 14 21  2  0
 21 22  1  0
 22 23  2  0
 23 24  1  0
 24 25  1  0
  5  1  1  0
 11  6  1  0
 25 12  2  0
 20 15  1  0
 25 21  1  0
  1 26  1  0
  1 27  1  0
  2 28  1  0
  3 29  1  0
  4 30  1  0
  7 31  1  0
  8 32  1  0
 10 33  1  0
 11 34  1  0
 16 35  1  0
 17 36  1  0
 18 37  1  0
 20 38  1  0
 22 39  1  0
 23 40  1  0
 24 41  1  0
M  END
