
     RDKit          3D

 45 52  0  0  0  0  0  0  0  0999 V2000
   -1.5215   -1.0775   -1.0900 Si  0  0  0  0  0  4  0  0  0  0  0  0
   -2.5404    0.1786   -0.0756 C   0  0  0  0  0  0  0  0  0  0  0  0
   -1.7732    1.0594    0.6006 C   0  0  0  0  0  0  0  0  0  0  0  0
   -0.3501    0.8142    0.4011 C   0  0  0  0  0  0  0  0  0  0  0  0
    0.0230   -0.2529   -0.4494 C   0  0  0  0  0  0  0  0  0  0  0  0
    1.3715   -0.6119   -0.7075 C   0  0  0  0  0  0  0  0  0  0  0  0
    1.9843   -1.9595   -1.6028 S   0  0  0  0  0  0  0  0  0  0  0  0
    3.6353   -1.5197   -1.3515 C   0  0  0  0  0  0  0  0  0  0  0  0
    4.7781   -2.2477   -1.7950 C   0  0  0  0  0  0  0  0  0  0  0  0
    6.0825   -1.7634   -1.6187 C   0  0  0  0  0  0  0  0  0  0  0  0
    6.1078   -0.4936   -1.0595 C   0  0  0  0  0  0  0  0  0  0  0  0
    7.2954    0.1905   -0.9241 C   0  0  0  0  0  0  0  0  0  0  0  0
    7.0466    1.7923   -0.3423 S   0  0  0  0  0  0  0  0  0  0  0  0
    5.3380    1.5755   -0.2754 C   0  0  0  0  0  0  0  0  0  0  0  0
    5.0159    0.2893   -0.6007 C   0  0  0  0  0  0  0  0  0  0  0  0
    3.6992   -0.3075   -0.6698 C   0  0  0  0  0  0  0  0  0  0  0  0
    2.4505    0.1211   -0.1911 C   0  0  0  0  0  0  0  0  0  0  0  0
    2.1019    1.1469    0.7720 C   0  0  0  0  0  0  0  0  0  0  0  0
    2.8358    1.8732    1.6609 C   0  0  0  0  0  0  0  0  0  0  0  0
    1.9852    2.6842    2.3684 O   0  0  0  0  0  0  0  0  0  0  0  0
    0.7107    2.4084    1.9493 C   0  0  0  0  0  0  0  0  0  0  0  0
    0.7358    1.4290    0.9870 C   0  0  0  0  0  0  0  0  0  0  0  0
   -3.9857    0.1826   -0.1198 C   0  0  0  0  0  0  0  0  0  0  0  0
   -4.7733    1.1666   -0.7681 C   0  0  0  0  0  0  0  0  0  0  0  0
   -6.2148    1.1576   -0.7988 C   0  0  0  0  0  0  0  0  0  0  0  0
   -7.0206    0.1735   -0.1791 C   0  0  0  0  0  0  0  0  0  0  0  0
   -6.2248   -0.7667    0.4611 C   0  0  0  0  0  0  0  0  0  0  0  0
   -6.6486   -1.8508    1.1809 C   0  0  0  0  0  0  0  0  0  0  0  0
   -5.5625   -2.5234    1.6718 O   0  0  0  0  0  0  0  0  0  0  0  0
   -4.4404   -1.8561    1.2581 C   0  0  0  0  0  0  0  0  0  0  0  0
   -4.7979   -0.7724    0.4969 C   0  0  0  0  0  0  0  0  0  0  0  0
   -1.6918   -2.4611   -0.5759 H   0  0  0  0  0  0  0  0  0  0  0  0
   -1.7145   -0.8936   -2.5513 H   0  0  0  0  0  0  0  0  0  0  0  0
   -2.1463    1.8620    1.2216 H   0  0  0  0  0  0  0  0  0  0  0  0
    4.6359   -3.2042   -2.2963 H   0  0  0  0  0  0  0  0  0  0  0  0
    6.9519   -2.3114   -1.9602 H   0  0  0  0  0  0  0  0  0  0  0  0
    8.2980   -0.1369   -1.1642 H   0  0  0  0  0  0  0  0  0  0  0  0
    4.7154    2.4231   -0.0391 H   0  0  0  0  0  0  0  0  0  0  0  0
    3.8713    1.9393    1.9577 H   0  0  0  0  0  0  0  0  0  0  0  0
   -0.0690    2.9605    2.4550 H   0  0  0  0  0  0  0  0  0  0  0  0
   -4.2658    1.9836   -1.2834 H   0  0  0  0  0  0  0  0  0  0  0  0
   -6.7133    1.9669   -1.3347 H   0  0  0  0  0  0  0  0  0  0  0  0
   -8.1007    0.1803   -0.2059 H   0  0  0  0  0  0  0  0  0  0  0  0
   -7.6110   -2.2686    1.4399 H   0  0  0  0  0  0  0  0  0  0  0  0
   -3.5040   -2.2798    1.5923 H   0  0  0  0  0  0  0  0  0  0  0  0
  1  2  1  0
  2  3  2  0
  3  4  1  0
  4  5  2  0
  5  6  1  0
  6  7  1  0
  7  8  1  0
  8  9  1  0
  9 10  2  0
 10 11  1  0
 11 12  2  0
 12 13  1  0
 13 14  1  0
 14 15  2  0
 15 16  1  0
 16 17  1  0
 17 18  1  0
 18 19  2  0
 19 20  1  0
 20 21  1  0
 21 22  2  0
  2 23  1  0
 23 24  2  0
 24 25  1  0
 25 26  2  0
 26 27  1  0
 27 28  2  0
 28 29  1  0
 29 30  1  0
 30 31  2  0
  5  1  1  0
 17  6  2  0
 22 18  1  0
 31 23  1  0
 22  4  1  0
 31 27  1  0
 16  8  2  0
 15 11  1  0
  1 32  1  0
  1 33  1  0
  3 34  1  0
  9 35  1  0
 10 36  1  0
 12 37  1  0
 14 38  1  0
 19 39  1  0
 21 40  1  0
 24 41  1  0
 25 42  1  0
 26 43  1  0
 28 44  1  0
 30 45  1  0
M  END
