
     RDKit          3D

 40 46  0  0  0  0  0  0  0  0999 V2000
   -5.0385   -2.2412    2.1309 Si  0  0  0  0  0  4  0  0  0  0  0  0
   -5.5146   -0.7749    1.0839 C   0  0  0  0  0  0  0  0  0  0  0  0
   -4.4256   -0.1912    0.5495 C   0  0  0  0  0  0  0  0  0  0  0  0
   -4.3972    0.9481   -0.3006 C   0  0  0  0  0  0  0  0  0  0  0  0
   -5.3773    1.7998   -0.8440 C   0  0  0  0  0  0  0  0  0  0  0  0
   -4.6836    2.7270   -1.5975 C   0  0  0  0  0  0  0  0  0  0  0  0
   -3.3390    2.4942   -1.5481 O   0  0  0  0  0  0  0  0  0  0  0  0
   -3.1805    1.4054   -0.7528 C   0  0  0  0  0  0  0  0  0  0  0  0
   -1.8618    0.8585   -0.4673 C   0  0  0  0  0  0  0  0  0  0  0  0
   -0.6947    1.4258   -0.9967 C   0  0  0  0  0  0  0  0  0  0  0  0
    0.5218    0.8230   -0.6602 C   0  0  0  0  0  0  0  0  0  0  0  0
    1.8058    1.1552   -1.0255 N   0  0  0  0  0  0  0  0  0  0  0  0
    2.7180    0.2904   -0.4661 C   0  0  0  0  0  0  0  0  0  0  0  0
    1.9911   -0.6198    0.2778 C   0  0  0  0  0  0  0  0  0  0  0  0
    0.6101   -0.2955    0.1637 C   0  0  0  0  0  0  0  0  0  0  0  0
   -0.5722   -0.8574    0.6904 C   0  0  0  0  0  0  0  0  0  0  0  0
   -1.8171   -0.2849    0.3791 C   0  0  0  0  0  0  0  0  0  0  0  0
   -3.1162   -0.8293    0.9037 C   0  0  0  0  0  0  0  0  0  0  0  0
   -3.2444   -1.9027    1.7140 C   0  0  0  0  0  0  0  0  0  0  0  0
    4.1282    0.4043   -0.6806 C   0  0  0  0  0  0  0  0  0  0  0  0
    4.8721    1.6337   -1.6635 S   0  0  0  0  0  0  0  0  0  0  0  0
    6.4858    1.0506   -1.3782 C   0  0  0  0  0  0  0  0  0  0  0  0
    6.3926   -0.0250   -0.5696 C   0  0  0  0  0  0  0  0  0  0  0  0
    7.2152   -0.9718    0.0589 C   0  0  0  0  0  0  0  0  0  0  0  0
    6.3339   -1.8046    0.7594 C   0  0  0  0  0  0  0  0  0  0  0  0
    5.0012   -1.4614    0.6268 O   0  0  0  0  0  0  0  0  0  0  0  0
    5.1181   -0.3759   -0.1914 C   0  0  0  0  0  0  0  0  0  0  0  0
   -5.3325   -2.0313    3.5687 H   0  0  0  0  0  0  0  0  0  0  0  0
   -5.5171   -3.5240    1.5623 H   0  0  0  0  0  0  0  0  0  0  0  0
   -6.5431   -0.4779    0.9577 H   0  0  0  0  0  0  0  0  0  0  0  0
   -6.4486    1.7576   -0.7140 H   0  0  0  0  0  0  0  0  0  0  0  0
   -4.9829    3.5734   -2.1997 H   0  0  0  0  0  0  0  0  0  0  0  0
   -0.7356    2.2977   -1.6416 H   0  0  0  0  0  0  0  0  0  0  0  0
    2.0486    1.9311   -1.6250 H   0  0  0  0  0  0  0  0  0  0  0  0
    2.4043   -1.4404    0.8502 H   0  0  0  0  0  0  0  0  0  0  0  0
   -0.4942   -1.7283    1.3311 H   0  0  0  0  0  0  0  0  0  0  0  0
   -2.4697   -2.5356    2.1134 H   0  0  0  0  0  0  0  0  0  0  0  0
    7.3477    1.5331   -1.8165 H   0  0  0  0  0  0  0  0  0  0  0  0
    8.2910   -1.0656    0.0297 H   0  0  0  0  0  0  0  0  0  0  0  0
    6.5010   -2.6699    1.3877 H   0  0  0  0  0  0  0  0  0  0  0  0
  1  2  1  0
  2  3  2  0
  3  4  1  0
  4  5  1  0
  5  6  2  0
  6  7  1  0
  7  8  1  0
  8  9  1  0
  9 10  2  0
 10 11  1  0
 11 12  1  0
 12 13  1  0
 13 14  2  0
 14 15  1  0
 15 16  1  0
 16 17  2  0
 17 18  1  0
 18 19  2  0
 13 20  1  0
 20 21  1  0
 21 22  1  0
 22 23  2  0
 23 24  1  0
 24 25  2  0
 25 26  1  0
 26 27  1  0
 19  1  1  0
 27 20  2  0
 18  3  1  0
 27 23  1  0
  8  4  2  0
 17  9  1  0
 15 11  2  0
  1 28  1  0
  1 29  1  0
  2 30  1  0
  5 31  1  0
  6 32  1  0
 10 33  1  0
 12 34  1  0
 14 35  1  0
 16 36  1  0
 19 37  1  0
 22 38  1  0
 24 39  1  0
 25 40  1  0
M  END
