
     RDKit          3D

 40 44  0  0  0  0  0  0  0  0999 V2000
    6.4830    0.2095    0.3258 C   0  0  0  0  0  0  0  0  0  0  0  0
    7.6613    0.6873   -0.4716 C   0  0  0  0  0  0  0  0  0  0  0  0
    7.2358    1.2633   -1.6028 C   0  0  0  0  0  0  0  0  0  0  0  0
    5.7968    1.2188   -1.6508 C   0  0  0  0  0  0  0  0  0  0  0  0
    5.3176    0.6137   -0.5477 C   0  0  0  0  0  0  0  0  0  0  0  0
    3.9172    0.3576   -0.1909 C   0  0  0  0  0  0  0  0  0  0  0  0
    3.5658   -0.2864    0.9956 C   0  0  0  0  0  0  0  0  0  0  0  0
    2.2214   -0.5188    1.3129 C   0  0  0  0  0  0  0  0  0  0  0  0
    1.2191   -0.1046    0.4381 C   0  0  0  0  0  0  0  0  0  0  0  0
    1.5407    0.5226   -0.7194 N   0  0  0  0  0  0  0  0  0  0  0  0
    2.8529    0.7352   -1.0021 C   0  0  0  0  0  0  0  0  0  0  0  0
   -0.2278   -0.3009    0.6779 C   0  0  0  0  0  0  0  0  0  0  0  0
   -0.7608   -0.9255    1.8115 C   0  0  0  0  0  0  0  0  0  0  0  0
   -2.1459   -1.0769    1.9723 C   0  0  0  0  0  0  0  0  0  0  0  0
   -3.0132   -0.6010    0.9926 C   0  0  0  0  0  0  0  0  0  0  0  0
   -2.5289    0.0045   -0.1094 N   0  0  0  0  0  0  0  0  0  0  0  0
   -1.1815    0.1384   -0.2403 C   0  0  0  0  0  0  0  0  0  0  0  0
   -4.4877   -0.7080    1.0614 C   0  0  0  0  0  0  0  0  0  0  0  0
   -5.2436   -1.4693    2.4322 S   0  0  0  0  0  0  0  0  0  0  0  0
   -6.8256   -1.2317    1.8398 C   0  0  0  0  0  0  0  0  0  0  0  0
   -6.8096   -0.5919    0.6315 C   0  0  0  0  0  0  0  0  0  0  0  0
   -7.9531   -0.2892   -0.0445 N   0  0  0  0  0  0  0  0  0  0  0  0
   -7.6668    0.3430   -1.2138 C   0  0  0  0  0  0  0  0  0  0  0  0
   -6.3808    0.6454   -1.6690 C   0  0  0  0  0  0  0  0  0  0  0  0
   -5.2316    0.3519   -1.0101 N   0  0  0  0  0  0  0  0  0  0  0  0
   -5.4697   -0.2860    0.1746 C   0  0  0  0  0  0  0  0  0  0  0  0
    6.4523    0.7095    1.2992 H   0  0  0  0  0  0  0  0  0  0  0  0
    6.5292   -0.8757    0.4630 H   0  0  0  0  0  0  0  0  0  0  0  0
    8.6918    0.5779   -0.1694 H   0  0  0  0  0  0  0  0  0  0  0  0
    7.8561    1.6989   -2.3717 H   0  0  0  0  0  0  0  0  0  0  0  0
    5.2349    1.6272   -2.4769 H   0  0  0  0  0  0  0  0  0  0  0  0
    4.3229   -0.6219    1.6992 H   0  0  0  0  0  0  0  0  0  0  0  0
    1.9950   -1.0225    2.2452 H   0  0  0  0  0  0  0  0  0  0  0  0
    3.0102    1.2434   -1.9491 H   0  0  0  0  0  0  0  0  0  0  0  0
   -0.1221   -1.3114    2.5999 H   0  0  0  0  0  0  0  0  0  0  0  0
   -2.5073   -1.5680    2.8689 H   0  0  0  0  0  0  0  0  0  0  0  0
   -0.8851    0.6389   -1.1606 H   0  0  0  0  0  0  0  0  0  0  0  0
   -7.6882   -1.5676    2.3967 H   0  0  0  0  0  0  0  0  0  0  0  0
   -8.5331    0.6164   -1.8092 H   0  0  0  0  0  0  0  0  0  0  0  0
   -6.2417    1.1542   -2.6185 H   0  0  0  0  0  0  0  0  0  0  0  0
  1  2  1  0
  2  3  2  0
  3  4  1  0
  4  5  2  0
  5  6  1  0
  6  7  2  0
  7  8  1  0
  8  9  2  0
  9 10  1  0
 10 11  2  0
  9 12  1  0
 12 13  2  0
 13 14  1  0
 14 15  2  0
 15 16  1  0
 16 17  2  0
 15 18  1  0
 18 19  1  0
 19 20  1  0
 20 21  2  0
 21 22  1  0
 22 23  2  0
 23 24  1  0
 24 25  2  0
 25 26  1  0
  5  1  1  0
 11  6  1  0
 17 12  1  0
 26 18  2  0
 26 21  1  0
  1 27  1  0
  1 28  1  0
  2 29  1  0
  3 30  1  0
  4 31  1  0
  7 32  1  0
  8 33  1  0
 11 34  1  0
 13 35  1  0
 14 36  1  0
 17 37  1  0
 20 38  1  0
 23 39  1  0
 24 40  1  0
M  END
