
     RDKit          3D

 41 47  0  0  0  0  0  0  0  0999 V2000
    5.9266   -1.1397   -0.8810 C   0  0  0  0  0  0  0  0  0  0  0  0
    7.3258   -0.5980   -0.7955 C   0  0  0  0  0  0  0  0  0  0  0  0
    7.3117    0.6024   -0.2023 C   0  0  0  0  0  0  0  0  0  0  0  0
    5.9561    0.9492    0.1364 C   0  0  0  0  0  0  0  0  0  0  0  0
    5.1159   -0.0325   -0.2471 C   0  0  0  0  0  0  0  0  0  0  0  0
    3.6608   -0.0522   -0.0911 C   0  0  0  0  0  0  0  0  0  0  0  0
    2.8968    1.0327    0.3698 C   0  0  0  0  0  0  0  0  0  0  0  0
    1.5380    1.1095    0.5461 N   0  0  0  0  0  0  0  0  0  0  0  0
    0.7486    0.0359    0.2656 C   0  0  0  0  0  0  0  0  0  0  0  0
   -0.6650    0.1624    0.4629 C   0  0  0  0  0  0  0  0  0  0  0  0
   -1.7997    0.3853   -0.8179 S   0  0  0  0  0  0  0  0  0  0  0  0
   -3.1714    0.4587    0.2612 C   0  0  0  0  0  0  0  0  0  0  0  0
   -4.5121    0.6829   -0.2388 C   0  0  0  0  0  0  0  0  0  0  0  0
   -5.3342    1.7288    0.1962 C   0  0  0  0  0  0  0  0  0  0  0  0
   -6.6194    2.0065   -0.2027 N   0  0  0  0  0  0  0  0  0  0  0  0
   -7.2458    1.2205   -1.1279 C   0  0  0  0  0  0  0  0  0  0  0  0
   -6.5440    0.1136   -1.6473 C   0  0  0  0  0  0  0  0  0  0  0  0
   -7.0028   -0.7725   -2.5465 N   0  0  0  0  0  0  0  0  0  0  0  0
   -5.7800   -1.8696   -2.7875 S   0  0  0  0  0  0  0  0  0  0  0  0
   -4.6218   -1.2723   -1.7624 N   0  0  0  0  0  0  0  0  0  0  0  0
   -5.1339   -0.1680   -1.1869 C   0  0  0  0  0  0  0  0  0  0  0  0
   -2.6973    0.3240    1.5229 C   0  0  0  0  0  0  0  0  0  0  0  0
   -3.1455    0.2843    2.8555 C   0  0  0  0  0  0  0  0  0  0  0  0
   -1.9878    0.1002    3.6225 C   0  0  0  0  0  0  0  0  0  0  0  0
   -0.8232    0.0173    2.8819 O   0  0  0  0  0  0  0  0  0  0  0  0
   -1.3363    0.1630    1.6283 C   0  0  0  0  0  0  0  0  0  0  0  0
    1.3517   -1.1469   -0.2183 C   0  0  0  0  0  0  0  0  0  0  0  0
    0.7474   -2.3034   -0.5524 N   0  0  0  0  0  0  0  0  0  0  0  0
    1.9348   -3.3362   -1.0608 S   0  0  0  0  0  0  0  0  0  0  0  0
    3.2718   -2.3794   -0.8742 N   0  0  0  0  0  0  0  0  0  0  0  0
    2.8575   -1.1863   -0.4033 C   0  0  0  0  0  0  0  0  0  0  0  0
    5.8588   -2.0747   -0.3159 H   0  0  0  0  0  0  0  0  0  0  0  0
    5.6468   -1.3019   -1.9269 H   0  0  0  0  0  0  0  0  0  0  0  0
    8.2025   -1.1137   -1.1576 H   0  0  0  0  0  0  0  0  0  0  0  0
    8.1693    1.2266   -0.0021 H   0  0  0  0  0  0  0  0  0  0  0  0
    5.7092    1.8775    0.6286 H   0  0  0  0  0  0  0  0  0  0  0  0
    3.3904    1.9697    0.6310 H   0  0  0  0  0  0  0  0  0  0  0  0
   -4.9564    2.4399    0.9329 H   0  0  0  0  0  0  0  0  0  0  0  0
   -8.2577    1.4791   -1.4110 H   0  0  0  0  0  0  0  0  0  0  0  0
   -4.1526    0.3673    3.2382 H   0  0  0  0  0  0  0  0  0  0  0  0
   -1.8334    0.0101    4.6905 H   0  0  0  0  0  0  0  0  0  0  0  0
  1  2  1  0
  2  3  2  0
  3  4  1  0
  4  5  2  0
  5  6  1  0
  6  7  2  0
  7  8  1  0
  8  9  2  0
  9 10  1  0
 10 11  1  0
 11 12  1  0
 12 13  1  0
 13 14  2  0
 14 15  1  0
 15 16  2  0
 16 17  1  0
 17 18  2  0
 18 19  1  0
 19 20  1  0
 20 21  2  0
 12 22  2  0
 22 23  1  0
 23 24  2  0
 24 25  1  0
 25 26  1  0
  9 27  1  0
 27 28  2  0
 28 29  1  0
 29 30  1  0
 30 31  2  0
  5  1  1  0
 31  6  1  0
 26 10  2  0
 31 27  1  0
 21 13  1  0
 26 22  1  0
 21 17  1  0
  1 32  1  0
  1 33  1  0
  2 34  1  0
  3 35  1  0
  4 36  1  0
  7 37  1  0
 14 38  1  0
 16 39  1  0
 23 40  1  0
 24 41  1  0
M  END
