
     RDKit          3D

 45 50  0  0  0  0  0  0  0  0999 V2000
   -6.1475    0.4308    0.2108 C   0  0  0  0  0  0  0  0  0  0  0  0
   -7.1459    1.0661   -0.7104 C   0  0  0  0  0  0  0  0  0  0  0  0
   -6.5035    1.6560   -1.7249 C   0  0  0  0  0  0  0  0  0  0  0  0
   -5.0841    1.4674   -1.5653 C   0  0  0  0  0  0  0  0  0  0  0  0
   -4.8214    0.7577   -0.4493 C   0  0  0  0  0  0  0  0  0  0  0  0
   -3.5061    0.4038   -0.0144 C   0  0  0  0  0  0  0  0  0  0  0  0
   -2.0622    0.8620   -0.8888 S   0  0  0  0  0  0  0  0  0  0  0  0
   -0.9904    0.0894    0.2135 C   0  0  0  0  0  0  0  0  0  0  0  0
   -1.7020   -0.4857    1.2285 C   0  0  0  0  0  0  0  0  0  0  0  0
   -1.3981   -1.2722    2.4571 C   0  0  0  0  0  0  0  0  0  0  0  0
   -2.8106   -1.5123    2.9891 C   0  0  0  0  0  0  0  0  0  0  0  0
   -3.7411   -0.9505    2.1845 C   0  0  0  0  0  0  0  0  0  0  0  0
   -3.1010   -0.3086    1.0885 C   0  0  0  0  0  0  0  0  0  0  0  0
    0.4381    0.1433    0.0047 C   0  0  0  0  0  0  0  0  0  0  0  0
    1.3333    0.8968    0.7956 C   0  0  0  0  0  0  0  0  0  0  0  0
    2.7592    0.9215    0.5873 C   0  0  0  0  0  0  0  0  0  0  0  0
    3.4544    0.1936   -0.4261 C   0  0  0  0  0  0  0  0  0  0  0  0
    4.9016    0.2135   -0.6302 C   0  0  0  0  0  0  0  0  0  0  0  0
    5.8008    0.2564    0.4362 C   0  0  0  0  0  0  0  0  0  0  0  0
    7.1699    0.2920    0.1766 C   0  0  0  0  0  0  0  0  0  0  0  0
    7.6126    0.2873   -1.1384 C   0  0  0  0  0  0  0  0  0  0  0  0
    6.6628    0.2440   -2.1421 C   0  0  0  0  0  0  0  0  0  0  0  0
    5.3308    0.2059   -1.9168 N   0  0  0  0  0  0  0  0  0  0  0  0
    2.5357   -0.5464   -1.1857 C   0  0  0  0  0  0  0  0  0  0  0  0
    2.7828   -1.3989   -2.2328 C   0  0  0  0  0  0  0  0  0  0  0  0
    1.6121   -1.9463   -2.6789 O   0  0  0  0  0  0  0  0  0  0  0  0
    0.6020   -1.4383   -1.9115 C   0  0  0  0  0  0  0  0  0  0  0  0
    1.1177   -0.5728   -0.9810 C   0  0  0  0  0  0  0  0  0  0  0  0
   -6.3088   -0.6504    0.2662 H   0  0  0  0  0  0  0  0  0  0  0  0
   -6.2131    0.8702    1.2113 H   0  0  0  0  0  0  0  0  0  0  0  0
   -8.2155    1.0445   -0.5677 H   0  0  0  0  0  0  0  0  0  0  0  0
   -6.9554    2.1936   -2.5447 H   0  0  0  0  0  0  0  0  0  0  0  0
   -4.3740    1.8637   -2.2762 H   0  0  0  0  0  0  0  0  0  0  0  0
   -0.9038   -2.2191    2.2230 H   0  0  0  0  0  0  0  0  0  0  0  0
   -0.8053   -0.6967    3.1735 H   0  0  0  0  0  0  0  0  0  0  0  0
   -3.0205   -2.0641    3.8933 H   0  0  0  0  0  0  0  0  0  0  0  0
   -4.8077   -0.9858    2.3497 H   0  0  0  0  0  0  0  0  0  0  0  0
    0.9286    1.5073    1.6040 H   0  0  0  0  0  0  0  0  0  0  0  0
    3.3365    1.5662    1.2526 H   0  0  0  0  0  0  0  0  0  0  0  0
    5.4506    0.2492    1.4632 H   0  0  0  0  0  0  0  0  0  0  0  0
    7.8822    0.3217    0.9961 H   0  0  0  0  0  0  0  0  0  0  0  0
    8.6698    0.3155   -1.3761 H   0  0  0  0  0  0  0  0  0  0  0  0
    6.9535    0.2389   -3.1887 H   0  0  0  0  0  0  0  0  0  0  0  0
    3.6725   -1.7173   -2.7580 H   0  0  0  0  0  0  0  0  0  0  0  0
   -0.3895   -1.7927   -2.1560 H   0  0  0  0  0  0  0  0  0  0  0  0
  1  2  1  0
  2  3  2  0
  3  4  1  0
  4  5  2  0
  5  6  1  0
  6  7  1  0
  7  8  1  0
  8  9  2  0
  9 10  1  0
 10 11  1  0
 11 12  2  0
 12 13  1  0
  8 14  1  0
 14 15  2  0
 15 16  1  0
 16 17  2  0
 17 18  1  0
 18 19  2  0
 19 20  1  0
 20 21  2  0
 21 22  1  0
 22 23  2  0
 17 24  1  0
 24 25  2  0
 25 26  1  0
 26 27  1  0
 27 28  2  0
  5  1  1  0
 13  6  2  0
 28 14  1  0
 13  9  1  0
 23 18  1  0
 28 24  1  0
  1 29  1  0
  1 30  1  0
  2 31  1  0
  3 32  1  0
  4 33  1  0
 10 34  1  0
 10 35  1  0
 11 36  1  0
 12 37  1  0
 15 38  1  0
 16 39  1  0
 19 40  1  0
 20 41  1  0
 21 42  1  0
 22 43  1  0
 25 44  1  0
 27 45  1  0
M  END
