
     RDKit          3D

 42 48  0  0  0  0  0  0  0  0999 V2000
   -4.6629    3.7820   -0.7122 Si  0  0  0  0  0  4  0  0  0  0  0  0
   -5.4592    2.1167   -0.4562 C   0  0  0  0  0  0  0  0  0  0  0  0
   -4.5293    1.1604   -0.2751 C   0  0  0  0  0  0  0  0  0  0  0  0
   -4.7600   -0.2250   -0.0515 C   0  0  0  0  0  0  0  0  0  0  0  0
   -5.9085   -1.0317    0.0538 C   0  0  0  0  0  0  0  0  0  0  0  0
   -5.4408   -2.3125    0.2773 C   0  0  0  0  0  0  0  0  0  0  0  0
   -4.0759   -2.3383    0.3150 O   0  0  0  0  0  0  0  0  0  0  0  0
   -3.6763   -1.0573    0.1129 C   0  0  0  0  0  0  0  0  0  0  0  0
   -2.2682   -0.6955    0.0875 C   0  0  0  0  0  0  0  0  0  0  0  0
   -1.2459   -1.6309    0.2674 C   0  0  0  0  0  0  0  0  0  0  0  0
    0.0972   -1.2283    0.2337 C   0  0  0  0  0  0  0  0  0  0  0  0
    1.1354   -2.1481    0.4115 C   0  0  0  0  0  0  0  0  0  0  0  0
    2.4739   -1.7366    0.3762 C   0  0  0  0  0  0  0  0  0  0  0  0
    2.8276   -0.3975    0.1632 C   0  0  0  0  0  0  0  0  0  0  0  0
    1.7717    0.5178   -0.0143 C   0  0  0  0  0  0  0  0  0  0  0  0
    0.4169    0.1277    0.0171 C   0  0  0  0  0  0  0  0  0  0  0  0
   -0.6193    1.0645   -0.1634 C   0  0  0  0  0  0  0  0  0  0  0  0
   -1.9647    0.6749   -0.1319 C   0  0  0  0  0  0  0  0  0  0  0  0
   -3.1065    1.6323   -0.3183 C   0  0  0  0  0  0  0  0  0  0  0  0
   -2.9876    2.9603   -0.5351 C   0  0  0  0  0  0  0  0  0  0  0  0
    4.2509    0.0146    0.1299 C   0  0  0  0  0  0  0  0  0  0  0  0
    4.7076    1.6968   -0.1367 S   0  0  0  0  0  0  0  0  0  0  0  0
    6.4013    1.4001   -0.0463 C   0  0  0  0  0  0  0  0  0  0  0  0
    6.5675    0.0873    0.1745 C   0  0  0  0  0  0  0  0  0  0  0  0
    7.7645   -0.5458    0.3083 O   0  0  0  0  0  0  0  0  0  0  0  0
    7.3216   -1.8357    0.5105 C   0  0  0  0  0  0  0  0  0  0  0  0
    5.9280   -1.9695    0.4985 C   0  0  0  0  0  0  0  0  0  0  0  0
    5.4213   -0.6692    0.2714 C   0  0  0  0  0  0  0  0  0  0  0  0
   -4.8851    4.3146   -2.0776 H   0  0  0  0  0  0  0  0  0  0  0  0
   -4.9457    4.7241    0.3968 H   0  0  0  0  0  0  0  0  0  0  0  0
   -6.5301    1.9934   -0.4620 H   0  0  0  0  0  0  0  0  0  0  0  0
   -6.9447   -0.7359   -0.0205 H   0  0  0  0  0  0  0  0  0  0  0  0
   -5.9240   -3.2684    0.4237 H   0  0  0  0  0  0  0  0  0  0  0  0
   -1.5011   -2.6752    0.4340 H   0  0  0  0  0  0  0  0  0  0  0  0
    0.9149   -3.2004    0.5803 H   0  0  0  0  0  0  0  0  0  0  0  0
    3.2281   -2.5010    0.5214 H   0  0  0  0  0  0  0  0  0  0  0  0
    1.9850    1.5709   -0.1834 H   0  0  0  0  0  0  0  0  0  0  0  0
   -0.3603    2.1065   -0.3295 H   0  0  0  0  0  0  0  0  0  0  0  0
   -2.0892    3.5497   -0.6107 H   0  0  0  0  0  0  0  0  0  0  0  0
    7.1572    2.1640   -0.1540 H   0  0  0  0  0  0  0  0  0  0  0  0
    8.1170   -2.5565    0.6489 H   0  0  0  0  0  0  0  0  0  0  0  0
    5.3980   -2.8989    0.6390 H   0  0  0  0  0  0  0  0  0  0  0  0
  1  2  1  0
  2  3  2  0
  3  4  1  0
  4  5  1  0
  5  6  2  0
  6  7  1  0
  7  8  1  0
  8  9  1  0
  9 10  2  0
 10 11  1  0
 11 12  2  0
 12 13  1  0
 13 14  2  0
 14 15  1  0
 15 16  2  0
 16 17  1  0
 17 18  2  0
 18 19  1  0
 19 20  2  0
 14 21  1  0
 21 22  1  0
 22 23  1  0
 23 24  2  0
 24 25  1  0
 25 26  1  0
 26 27  2  0
 27 28  1  0
 20  1  1  0
 28 21  2  0
 19  3  1  0
 28 24  1  0
  8  4  2  0
 18  9  1  0
 16 11  1  0
  1 29  1  0
  1 30  1  0
  2 31  1  0
  5 32  1  0
  6 33  1  0
 10 34  1  0
 12 35  1  0
 13 36  1  0
 15 37  1  0
 17 38  1  0
 20 39  1  0
 23 40  1  0
 26 41  1  0
 27 42  1  0
M  END
