
     RDKit          3D

 36 41  0  0  0  0  0  0  0  0999 V2000
    4.1369    1.8060   -0.7394 C   0  0  0  0  0  0  0  0  0  0  0  0
    5.1884    0.9594   -0.4290 C   0  0  0  0  0  0  0  0  0  0  0  0
    4.8734   -0.2917    0.0524 C   0  0  0  0  0  0  0  0  0  0  0  0
    3.6073   -0.7286    0.2346 N   0  0  0  0  0  0  0  0  0  0  0  0
    2.5594    0.0855   -0.0636 C   0  0  0  0  0  0  0  0  0  0  0  0
    2.8134    1.3700   -0.5570 C   0  0  0  0  0  0  0  0  0  0  0  0
    1.7317    2.1819   -0.8539 C   0  0  0  0  0  0  0  0  0  0  0  0
    0.4401    1.8255   -0.7022 N   0  0  0  0  0  0  0  0  0  0  0  0
    0.1249    0.6036   -0.2320 C   0  0  0  0  0  0  0  0  0  0  0  0
    1.1932   -0.2917    0.0969 C   0  0  0  0  0  0  0  0  0  0  0  0
    0.7007   -1.5379    0.5786 C   0  0  0  0  0  0  0  0  0  0  0  0
    1.4385   -2.6263    0.9852 C   0  0  0  0  0  0  0  0  0  0  0  0
    0.5635   -3.6126    1.3723 N   0  0  0  0  0  0  0  0  0  0  0  0
   -0.7307   -3.1751    1.2209 C   0  0  0  0  0  0  0  0  0  0  0  0
   -0.6759   -1.8907    0.7299 C   0  0  0  0  0  0  0  0  0  0  0  0
   -1.7747   -1.0650    0.4280 C   0  0  0  0  0  0  0  0  0  0  0  0
   -3.1712   -1.4541    0.5934 C   0  0  0  0  0  0  0  0  0  0  0  0
   -4.2568   -0.6173    0.2871 C   0  0  0  0  0  0  0  0  0  0  0  0
   -3.8025    0.6027   -0.1841 C   0  0  0  0  0  0  0  0  0  0  0  0
   -4.6216    1.6339   -0.5679 C   0  0  0  0  0  0  0  0  0  0  0  0
   -3.8028    2.6626   -0.9705 N   0  0  0  0  0  0  0  0  0  0  0  0
   -2.4815    2.2940   -0.8458 C   0  0  0  0  0  0  0  0  0  0  0  0
   -2.4372    1.0084   -0.3555 C   0  0  0  0  0  0  0  0  0  0  0  0
   -1.2817    0.2193   -0.0682 C   0  0  0  0  0  0  0  0  0  0  0  0
    4.3474    2.8016   -1.1221 H   0  0  0  0  0  0  0  0  0  0  0  0
    6.2196    1.2657   -0.5583 H   0  0  0  0  0  0  0  0  0  0  0  0
    5.6493   -1.0049    0.3153 H   0  0  0  0  0  0  0  0  0  0  0  0
    1.8705    3.1887   -1.2399 H   0  0  0  0  0  0  0  0  0  0  0  0
    2.5046   -2.8006    1.0389 H   0  0  0  0  0  0  0  0  0  0  0  0
    0.8351   -4.5242    1.7170 H   0  0  0  0  0  0  0  0  0  0  0  0
   -1.5551   -3.8248    1.4789 H   0  0  0  0  0  0  0  0  0  0  0  0
   -3.3962   -2.4484    0.9757 H   0  0  0  0  0  0  0  0  0  0  0  0
   -5.2901   -0.9059    0.4098 H   0  0  0  0  0  0  0  0  0  0  0  0
   -5.6974    1.7390   -0.5950 H   0  0  0  0  0  0  0  0  0  0  0  0
   -4.1203    3.5609   -1.3096 H   0  0  0  0  0  0  0  0  0  0  0  0
   -1.7023    2.9908   -1.1212 H   0  0  0  0  0  0  0  0  0  0  0  0
  1  2  2  0
  2  3  1  0
  3  4  2  0
  4  5  1  0
  5  6  2  0
  6  7  1  0
  7  8  2  0
  8  9  1  0
  9 10  2  0
 10 11  1  0
 11 12  2  0
 12 13  1  0
 13 14  1  0
 14 15  2  0
 15 16  1  0
 16 17  1  0
 17 18  2  0
 18 19  1  0
 19 20  2  0
 20 21  1  0
 21 22  1  0
 22 23  2  0
 23 24  1  0
  1  6  1  0
 24  9  1  0
  5 10  1  0
 15 11  1  0
 24 16  2  0
 23 19  1  0
  1 25  1  0
  2 26  1  0
  3 27  1  0
  7 28  1  0
 12 29  1  0
 13 30  1  0
 14 31  1  0
 17 32  1  0
 18 33  1  0
 20 34  1  0
 21 35  1  0
 22 36  1  0
M  END
