
     RDKit          3D

 46 50  0  0  0  0  0  0  0  0999 V2000
    8.3049   -0.3786   -0.6861 C   0  0  0  0  0  0  0  0  0  0  0  0
    7.6235    0.8140   -0.5307 C   0  0  0  0  0  0  0  0  0  0  0  0
    6.2761    0.8736   -0.4165 N   0  0  0  0  0  0  0  0  0  0  0  0
    5.6090   -0.3124   -0.4557 C   0  0  0  0  0  0  0  0  0  0  0  0
    4.1395   -0.2441   -0.3260 C   0  0  0  0  0  0  0  0  0  0  0  0
    3.4351    0.8983   -0.7444 C   0  0  0  0  0  0  0  0  0  0  0  0
    2.0407    0.9838   -0.6364 C   0  0  0  0  0  0  0  0  0  0  0  0
    1.2917   -0.0711   -0.1000 C   0  0  0  0  0  0  0  0  0  0  0  0
   -0.1724    0.0162    0.0165 C   0  0  0  0  0  0  0  0  0  0  0  0
   -0.7835    1.0877    0.6801 C   0  0  0  0  0  0  0  0  0  0  0  0
   -2.1817    1.1693    0.8102 C   0  0  0  0  0  0  0  0  0  0  0  0
   -3.0136    0.1850    0.2447 C   0  0  0  0  0  0  0  0  0  0  0  0
   -2.4039   -0.8847   -0.4370 C   0  0  0  0  0  0  0  0  0  0  0  0
   -1.0030   -0.9695   -0.5316 C   0  0  0  0  0  0  0  0  0  0  0  0
   -3.2457   -1.9739   -1.0514 C   0  0  0  0  0  0  0  0  0  0  0  0
   -4.6508   -1.4741   -1.3551 C   0  0  0  0  0  0  0  0  0  0  0  0
   -5.2409   -0.8220   -0.1146 C   0  0  0  0  0  0  0  0  0  0  0  0
   -4.3948    0.2668    0.3560 N   0  0  0  0  0  0  0  0  0  0  0  0
   -5.0206    1.4458    0.9404 C   0  0  0  0  0  0  0  0  0  0  0  0
   -4.1696    2.0132    2.0656 C   0  0  0  0  0  0  0  0  0  0  0  0
   -2.7806    2.3449    1.5394 C   0  0  0  0  0  0  0  0  0  0  0  0
    1.9864   -1.2103    0.3283 C   0  0  0  0  0  0  0  0  0  0  0  0
    3.3821   -1.2944    0.2203 C   0  0  0  0  0  0  0  0  0  0  0  0
    6.3175   -1.5036   -0.6229 C   0  0  0  0  0  0  0  0  0  0  0  0
    7.6698   -1.5677   -0.7381 N   0  0  0  0  0  0  0  0  0  0  0  0
    9.3846   -0.4089   -0.7753 H   0  0  0  0  0  0  0  0  0  0  0  0
    8.1447    1.7637   -0.4927 H   0  0  0  0  0  0  0  0  0  0  0  0
    3.9766    1.7430   -1.1691 H   0  0  0  0  0  0  0  0  0  0  0  0
    1.5429    1.8858   -0.9873 H   0  0  0  0  0  0  0  0  0  0  0  0
   -0.1645    1.8655    1.1241 H   0  0  0  0  0  0  0  0  0  0  0  0
   -0.5587   -1.8100   -1.0618 H   0  0  0  0  0  0  0  0  0  0  0  0
   -3.2876   -2.8193   -0.3539 H   0  0  0  0  0  0  0  0  0  0  0  0
   -2.7874   -2.3290   -1.9819 H   0  0  0  0  0  0  0  0  0  0  0  0
   -4.6179   -0.7451   -2.1754 H   0  0  0  0  0  0  0  0  0  0  0  0
   -5.2826   -2.3063   -1.6844 H   0  0  0  0  0  0  0  0  0  0  0  0
   -6.2433   -0.4486   -0.3557 H   0  0  0  0  0  0  0  0  0  0  0  0
   -5.3571   -1.5612    0.6875 H   0  0  0  0  0  0  0  0  0  0  0  0
   -5.1723    2.1994    0.1580 H   0  0  0  0  0  0  0  0  0  0  0  0
   -6.0100    1.1931    1.3400 H   0  0  0  0  0  0  0  0  0  0  0  0
   -4.6384    2.9119    2.4811 H   0  0  0  0  0  0  0  0  0  0  0  0
   -4.0946    1.2789    2.8784 H   0  0  0  0  0  0  0  0  0  0  0  0
   -2.8311    3.1958    0.8492 H   0  0  0  0  0  0  0  0  0  0  0  0
   -2.1423    2.6343    2.3825 H   0  0  0  0  0  0  0  0  0  0  0  0
    1.4429   -2.0430    0.7719 H   0  0  0  0  0  0  0  0  0  0  0  0
    3.8640   -2.1942    0.5962 H   0  0  0  0  0  0  0  0  0  0  0  0
    5.8167   -2.4633   -0.6862 H   0  0  0  0  0  0  0  0  0  0  0  0
  1  2  2  0
  2  3  1  0
  3  4  2  0
  4  5  1  0
  5  6  2  0
  6  7  1  0
  7  8  2  0
  8  9  1  0
  9 10  2  0
 10 11  1  0
 11 12  2  0
 12 13  1  0
 13 14  2  0
 13 15  1  0
 15 16  1  0
 16 17  1  0
 17 18  1  0
 18 19  1  0
 19 20  1  0
 20 21  1  0
  8 22  1  0
 22 23  2  0
  4 24  1  0
 24 25  2  0
 25  1  1  0
 23  5  1  0
 14  9  1  0
 21 11  1  0
 18 12  1  0
  1 26  1  0
  2 27  1  0
  6 28  1  0
  7 29  1  0
 10 30  1  0
 14 31  1  0
 15 32  1  0
 15 33  1  0
 16 34  1  0
 16 35  1  0
 17 36  1  0
 17 37  1  0
 19 38  1  0
 19 39  1  0
 20 40  1  0
 20 41  1  0
 21 42  1  0
 21 43  1  0
 22 44  1  0
 23 45  1  0
 24 46  1  0
M  END
