
     RDKit          3D

 36 40  0  0  0  0  0  0  0  0999 V2000
    7.5214   -0.1880   -0.3930 C   0  0  0  0  0  0  0  0  0  0  0  0
    6.8247   -1.0340    0.4467 C   0  0  0  0  0  0  0  0  0  0  0  0
    5.4739   -1.0222    0.5342 N   0  0  0  0  0  0  0  0  0  0  0  0
    4.8098   -0.1281   -0.2513 C   0  0  0  0  0  0  0  0  0  0  0  0
    3.3290   -0.1317   -0.1400 C   0  0  0  0  0  0  0  0  0  0  0  0
    2.4989    0.7276   -0.8809 C   0  0  0  0  0  0  0  0  0  0  0  0
    1.1004    0.6979   -0.7512 C   0  0  0  0  0  0  0  0  0  0  0  0
    0.4700   -0.1922    0.1248 C   0  0  0  0  0  0  0  0  0  0  0  0
   -0.9844   -0.2266    0.2628 C   0  0  0  0  0  0  0  0  0  0  0  0
   -1.8658   -0.9741    1.0241 C   0  0  0  0  0  0  0  0  0  0  0  0
   -3.1745   -0.5286    0.7040 C   0  0  0  0  0  0  0  0  0  0  0  0
   -4.4784   -0.8518    1.1004 C   0  0  0  0  0  0  0  0  0  0  0  0
   -5.5358   -0.1539    0.5266 C   0  0  0  0  0  0  0  0  0  0  0  0
   -6.8571   -0.3379    0.7944 O   0  0  0  0  0  0  0  0  0  0  0  0
   -7.5417    0.5454    0.0206 C   0  0  0  0  0  0  0  0  0  0  0  0
   -6.6766    1.2965   -0.7429 C   0  0  0  0  0  0  0  0  0  0  0  0
   -5.3684    0.8501   -0.4219 C   0  0  0  0  0  0  0  0  0  0  0  0
   -4.0639    1.1723   -0.8174 C   0  0  0  0  0  0  0  0  0  0  0  0
   -3.0073    0.4737   -0.2429 C   0  0  0  0  0  0  0  0  0  0  0  0
   -1.6880    0.6577   -0.5106 O   0  0  0  0  0  0  0  0  0  0  0  0
    1.2810   -1.0531    0.8686 C   0  0  0  0  0  0  0  0  0  0  0  0
    2.6776   -1.0210    0.7368 C   0  0  0  0  0  0  0  0  0  0  0  0
    5.5404    0.7153   -1.0911 C   0  0  0  0  0  0  0  0  0  0  0  0
    6.8976    0.7080   -1.1832 N   0  0  0  0  0  0  0  0  0  0  0  0
    8.6032   -0.2085   -0.4528 H   0  0  0  0  0  0  0  0  0  0  0  0
    7.3346   -1.7517    1.0789 H   0  0  0  0  0  0  0  0  0  0  0  0
    2.9086    1.4484   -1.5830 H   0  0  0  0  0  0  0  0  0  0  0  0
    0.5088    1.3874   -1.3512 H   0  0  0  0  0  0  0  0  0  0  0  0
   -1.6015   -1.7496    1.7282 H   0  0  0  0  0  0  0  0  0  0  0  0
   -4.6691   -1.6258    1.8362 H   0  0  0  0  0  0  0  0  0  0  0  0
   -8.6175    0.5180    0.1245 H   0  0  0  0  0  0  0  0  0  0  0  0
   -6.9551    2.0701   -1.4441 H   0  0  0  0  0  0  0  0  0  0  0  0
   -3.8729    1.9462   -1.5531 H   0  0  0  0  0  0  0  0  0  0  0  0
    0.8481   -1.7664    1.5653 H   0  0  0  0  0  0  0  0  0  0  0  0
    3.2634   -1.7142    1.3406 H   0  0  0  0  0  0  0  0  0  0  0  0
    5.0667    1.4446   -1.7367 H   0  0  0  0  0  0  0  0  0  0  0  0
  1  2  2  0
  2  3  1  0
  3  4  2  0
  4  5  1  0
  5  6  2  0
  6  7  1  0
  7  8  2  0
  8  9  1  0
  9 10  2  0
 10 11  1  0
 11 12  2  0
 12 13  1  0
 13 14  1  0
 14 15  1  0
 15 16  2  0
 16 17  1  0
 17 18  1  0
 18 19  2  0
 19 20  1  0
  8 21  1  0
 21 22  2  0
  4 23  1  0
 23 24  2  0
 24  1  1  0
 22  5  1  0
 20  9  1  0
 19 11  1  0
 17 13  2  0
  1 25  1  0
  2 26  1  0
  6 27  1  0
  7 28  1  0
 10 29  1  0
 12 30  1  0
 15 31  1  0
 16 32  1  0
 18 33  1  0
 21 34  1  0
 22 35  1  0
 23 36  1  0
M  END
