
     RDKit          3D

 27 29  0  0  0  0  0  0  0  0999 V2000
   -5.3222   -0.3106   -0.1154 C   0  0  0  0  0  0  0  0  0  0  0  0
   -4.5466   -1.1254    0.6881 C   0  0  0  0  0  0  0  0  0  0  0  0
   -3.1965   -1.0362    0.7285 N   0  0  0  0  0  0  0  0  0  0  0  0
   -2.6252   -0.0888   -0.0646 C   0  0  0  0  0  0  0  0  0  0  0  0
   -1.1524    0.0087   -0.0127 C   0  0  0  0  0  0  0  0  0  0  0  0
   -0.3703   -1.1151    0.3081 C   0  0  0  0  0  0  0  0  0  0  0  0
    1.0288   -1.0504    0.3576 C   0  0  0  0  0  0  0  0  0  0  0  0
    1.6972    0.1483    0.0919 C   0  0  0  0  0  0  0  0  0  0  0  0
    3.1469    0.2349    0.1434 C   0  0  0  0  0  0  0  0  0  0  0  0
    4.0006    1.3317    0.4115 C   0  0  0  0  0  0  0  0  0  0  0  0
    5.2955    1.0100    0.3479 N   0  0  0  0  0  0  0  0  0  0  0  0
    5.2782   -0.2958    0.0388 N   0  0  0  0  0  0  0  0  0  0  0  0
    4.0194   -0.8063   -0.0970 C   0  0  0  0  0  0  0  0  0  0  0  0
    0.9332    1.2790   -0.2158 C   0  0  0  0  0  0  0  0  0  0  0  0
   -0.4672    1.2096   -0.2663 C   0  0  0  0  0  0  0  0  0  0  0  0
   -3.4277    0.7162   -0.8749 C   0  0  0  0  0  0  0  0  0  0  0  0
   -4.7828    0.6293   -0.9189 N   0  0  0  0  0  0  0  0  0  0  0  0
   -6.4025   -0.3943   -0.1355 H   0  0  0  0  0  0  0  0  0  0  0  0
   -4.9913   -1.8789    1.3280 H   0  0  0  0  0  0  0  0  0  0  0  0
   -0.8549   -2.0664    0.5266 H   0  0  0  0  0  0  0  0  0  0  0  0
    1.5784   -1.9501    0.6225 H   0  0  0  0  0  0  0  0  0  0  0  0
    3.7317    2.3514    0.6551 H   0  0  0  0  0  0  0  0  0  0  0  0
    6.1654   -0.7763   -0.0687 H   0  0  0  0  0  0  0  0  0  0  0  0
    3.8678   -1.8435   -0.3585 H   0  0  0  0  0  0  0  0  0  0  0  0
    1.4121    2.2322   -0.4283 H   0  0  0  0  0  0  0  0  0  0  0  0
   -1.0101    2.1250   -0.4918 H   0  0  0  0  0  0  0  0  0  0  0  0
   -3.0054    1.4617   -1.5396 H   0  0  0  0  0  0  0  0  0  0  0  0
  1  2  2  0
  2  3  1  0
  3  4  2  0
  4  5  1  0
  5  6  2  0
  6  7  1  0
  7  8  2  0
  8  9  1  0
  9 10  1  0
 10 11  2  0
 11 12  1  0
 12 13  1  0
  8 14  1  0
 14 15  2  0
  4 16  1  0
 16 17  2  0
 17  1  1  0
 15  5  1  0
 13  9  2  0
  1 18  1  0
  2 19  1  0
  6 20  1  0
  7 21  1  0
 10 22  1  0
 12 23  1  0
 13 24  1  0
 14 25  1  0
 15 26  1  0
 16 27  1  0
M  END
