
     RDKit          3D

 33 37  0  0  0  0  0  0  0  0999 V2000
   -5.9022   -0.2541    0.0243 C   0  0  0  0  0  0  0  0  0  0  0  0
   -5.9098    1.1236    0.2026 C   0  0  0  0  0  0  0  0  0  0  0  0
   -4.8160    1.9123    0.3115 N   0  0  0  0  0  0  0  0  0  0  0  0
   -3.6645    1.2204    0.2284 C   0  0  0  0  0  0  0  0  0  0  0  0
   -2.4220    1.7811    0.3063 N   0  0  0  0  0  0  0  0  0  0  0  0
   -1.4488    0.8147    0.1911 C   0  0  0  0  0  0  0  0  0  0  0  0
   -0.0517    0.9296    0.2159 C   0  0  0  0  0  0  0  0  0  0  0  0
    0.7246   -0.2354    0.0680 C   0  0  0  0  0  0  0  0  0  0  0  0
    2.1961   -0.1589    0.0878 C   0  0  0  0  0  0  0  0  0  0  0  0
    2.8704    0.4094    1.1875 C   0  0  0  0  0  0  0  0  0  0  0  0
    4.2688    0.5013    1.2488 C   0  0  0  0  0  0  0  0  0  0  0  0
    4.9665   -0.0039    0.1540 C   0  0  0  0  0  0  0  0  0  0  0  0
    6.2946   -0.0966   -0.1528 N   0  0  0  0  0  0  0  0  0  0  0  0
    6.4950   -0.6728   -1.3492 N   0  0  0  0  0  0  0  0  0  0  0  0
    5.3024   -0.9699   -1.8514 N   0  0  0  0  0  0  0  0  0  0  0  0
    4.3502   -0.5721   -0.9510 C   0  0  0  0  0  0  0  0  0  0  0  0
    2.9514   -0.6552   -0.9942 C   0  0  0  0  0  0  0  0  0  0  0  0
    0.0762   -1.4688   -0.0989 C   0  0  0  0  0  0  0  0  0  0  0  0
   -1.3226   -1.5706   -0.1202 C   0  0  0  0  0  0  0  0  0  0  0  0
   -2.1029   -0.4082    0.0273 C   0  0  0  0  0  0  0  0  0  0  0  0
   -3.5078   -0.1486    0.0527 C   0  0  0  0  0  0  0  0  0  0  0  0
   -4.6781   -0.9199   -0.0543 C   0  0  0  0  0  0  0  0  0  0  0  0
   -6.8350   -0.8022   -0.0529 H   0  0  0  0  0  0  0  0  0  0  0  0
   -6.8555    1.6576    0.2656 H   0  0  0  0  0  0  0  0  0  0  0  0
   -2.2644    2.7687    0.4310 H   0  0  0  0  0  0  0  0  0  0  0  0
    0.4203    1.9012    0.3336 H   0  0  0  0  0  0  0  0  0  0  0  0
    2.2925    0.7836    2.0329 H   0  0  0  0  0  0  0  0  0  0  0  0
    4.7687    0.9386    2.1059 H   0  0  0  0  0  0  0  0  0  0  0  0
    7.0985    0.2013    0.3853 H   0  0  0  0  0  0  0  0  0  0  0  0
    2.4711   -1.0913   -1.8643 H   0  0  0  0  0  0  0  0  0  0  0  0
    0.6621   -2.3805   -0.2060 H   0  0  0  0  0  0  0  0  0  0  0  0
   -1.7950   -2.5401   -0.2485 H   0  0  0  0  0  0  0  0  0  0  0  0
   -4.6332   -1.9945   -0.1935 H   0  0  0  0  0  0  0  0  0  0  0  0
  1  2  2  0
  2  3  1  0
  3  4  2  0
  4  5  1  0
  5  6  1  0
  6  7  2  0
  7  8  1  0
  8  9  1  0
  9 10  2  0
 10 11  1  0
 11 12  2  0
 12 13  1  0
 13 14  1  0
 14 15  2  0
 15 16  1  0
 16 17  2  0
  8 18  2  0
 18 19  1  0
 19 20  2  0
 20 21  1  0
 21 22  2  0
 22  1  1  0
 21  4  1  0
 20  6  1  0
 17  9  1  0
 16 12  1  0
  1 23  1  0
  2 24  1  0
  5 25  1  0
  7 26  1  0
 10 27  1  0
 11 28  1  0
 13 29  1  0
 17 30  1  0
 18 31  1  0
 19 32  1  0
 22 33  1  0
M  END
