
     RDKit          3D

 39 44  0  0  0  0  0  0  0  0999 V2000
    6.3214    1.6131   -0.4909 C   0  0  0  0  0  0  0  0  0  0  0  0
    6.0372    1.8536   -1.8293 C   0  0  0  0  0  0  0  0  0  0  0  0
    4.8810    1.5430   -2.4591 N   0  0  0  0  0  0  0  0  0  0  0  0
    3.9863    0.9527   -1.6455 C   0  0  0  0  0  0  0  0  0  0  0  0
    2.7461    0.5378   -2.0378 N   0  0  0  0  0  0  0  0  0  0  0  0
    2.0665   -0.0181   -0.9777 C   0  0  0  0  0  0  0  0  0  0  0  0
    0.7777   -0.5647   -0.9158 C   0  0  0  0  0  0  0  0  0  0  0  0
    0.3260   -1.0795    0.3135 C   0  0  0  0  0  0  0  0  0  0  0  0
   -1.0150   -1.6459    0.4238 C   0  0  0  0  0  0  0  0  0  0  0  0
   -1.2669   -3.0027    0.6247 C   0  0  0  0  0  0  0  0  0  0  0  0
   -2.4923   -3.5697    0.7288 N   0  0  0  0  0  0  0  0  0  0  0  0
   -3.5871   -2.7773    0.6340 C   0  0  0  0  0  0  0  0  0  0  0  0
   -3.4552   -1.3965    0.4383 C   0  0  0  0  0  0  0  0  0  0  0  0
   -2.1713   -0.8577    0.3389 C   0  0  0  0  0  0  0  0  0  0  0  0
   -2.3178    0.5018    0.1708 N   0  0  0  0  0  0  0  0  0  0  0  0
   -3.6452    0.8530    0.1395 C   0  0  0  0  0  0  0  0  0  0  0  0
   -4.2495    2.0986   -0.0162 C   0  0  0  0  0  0  0  0  0  0  0  0
   -5.6357    2.0828    0.0048 C   0  0  0  0  0  0  0  0  0  0  0  0
   -6.3956    0.9768    0.1617 N   0  0  0  0  0  0  0  0  0  0  0  0
   -5.7830   -0.2236    0.3133 C   0  0  0  0  0  0  0  0  0  0  0  0
   -4.3852   -0.3172    0.3052 C   0  0  0  0  0  0  0  0  0  0  0  0
    1.1722   -1.0371    1.4300 C   0  0  0  0  0  0  0  0  0  0  0  0
    2.4588   -0.4855    1.3539 C   0  0  0  0  0  0  0  0  0  0  0  0
    2.9175    0.0358    0.1287 C   0  0  0  0  0  0  0  0  0  0  0  0
    4.1334    0.6540   -0.2969 C   0  0  0  0  0  0  0  0  0  0  0  0
    5.3549    0.9989    0.3071 C   0  0  0  0  0  0  0  0  0  0  0  0
    7.2815    1.8987   -0.0745 H   0  0  0  0  0  0  0  0  0  0  0  0
    6.7800    2.3310   -2.4648 H   0  0  0  0  0  0  0  0  0  0  0  0
    2.4002    0.6352   -2.9797 H   0  0  0  0  0  0  0  0  0  0  0  0
    0.1464   -0.6009   -1.8002 H   0  0  0  0  0  0  0  0  0  0  0  0
   -0.4421   -3.7082    0.7045 H   0  0  0  0  0  0  0  0  0  0  0  0
   -4.5470   -3.2737    0.7214 H   0  0  0  0  0  0  0  0  0  0  0  0
   -1.5458    1.1490    0.0874 H   0  0  0  0  0  0  0  0  0  0  0  0
   -3.6881    3.0148   -0.1437 H   0  0  0  0  0  0  0  0  0  0  0  0
   -6.1974    3.0068   -0.1093 H   0  0  0  0  0  0  0  0  0  0  0  0
   -6.4341   -1.0814    0.4375 H   0  0  0  0  0  0  0  0  0  0  0  0
    0.8309   -1.4304    2.3869 H   0  0  0  0  0  0  0  0  0  0  0  0
    3.0936   -0.4625    2.2352 H   0  0  0  0  0  0  0  0  0  0  0  0
    5.5424    0.7952    1.3557 H   0  0  0  0  0  0  0  0  0  0  0  0
  1  2  2  0
  2  3  1  0
  3  4  2  0
  4  5  1  0
  5  6  1  0
  6  7  2  0
  7  8  1  0
  8  9  1  0
  9 10  2  0
 10 11  1  0
 11 12  2  0
 12 13  1  0
 13 14  2  0
 14 15  1  0
 15 16  1  0
 16 17  2  0
 17 18  1  0
 18 19  2  0
 19 20  1  0
 20 21  2  0
  8 22  2  0
 22 23  1  0
 23 24  2  0
 24 25  1  0
 25 26  2  0
 26  1  1  0
 25  4  1  0
 24  6  1  0
 14  9  1  0
 21 16  1  0
 21 13  1  0
  1 27  1  0
  2 28  1  0
  5 29  1  0
  7 30  1  0
 10 31  1  0
 12 32  1  0
 15 33  1  0
 17 34  1  0
 18 35  1  0
 20 36  1  0
 22 37  1  0
 23 38  1  0
 26 39  1  0
M  END
