
     RDKit          3D

 35 40  0  0  0  0  0  0  0  0999 V2000
   -6.7247    0.0845    0.3068 C   0  0  0  0  0  0  0  0  0  0  0  0
   -6.7297   -1.0916   -0.4325 C   0  0  0  0  0  0  0  0  0  0  0  0
   -5.6350   -1.7435   -0.8862 N   0  0  0  0  0  0  0  0  0  0  0  0
   -4.4850   -1.1318   -0.5474 C   0  0  0  0  0  0  0  0  0  0  0  0
   -3.2419   -1.5868   -0.8832 N   0  0  0  0  0  0  0  0  0  0  0  0
   -2.2726   -0.7428   -0.3911 C   0  0  0  0  0  0  0  0  0  0  0  0
   -0.8767   -0.8138   -0.4915 C   0  0  0  0  0  0  0  0  0  0  0  0
   -0.1014    0.1938    0.1112 C   0  0  0  0  0  0  0  0  0  0  0  0
    1.3632    0.1093   -0.0004 C   0  0  0  0  0  0  0  0  0  0  0  0
    2.0311   -0.8498   -0.6302 N   0  0  0  0  0  0  0  0  0  0  0  0
    3.3538   -0.5403   -0.4884 C   0  0  0  0  0  0  0  0  0  0  0  0
    4.4213   -1.2273   -0.9630 N   0  0  0  0  0  0  0  0  0  0  0  0
    5.6212   -0.6734   -0.6627 C   0  0  0  0  0  0  0  0  0  0  0  0
    6.8648   -1.1342   -1.0021 N   0  0  0  0  0  0  0  0  0  0  0  0
    7.7004   -0.2568   -0.4838 C   0  0  0  0  0  0  0  0  0  0  0  0
    7.0491    0.7524    0.1768 N   0  0  0  0  0  0  0  0  0  0  0  0
    5.7142    0.5046    0.0743 C   0  0  0  0  0  0  0  0  0  0  0  0
    4.6794    1.2186    0.5646 N   0  0  0  0  0  0  0  0  0  0  0  0
    3.5087    0.6304    0.2416 C   0  0  0  0  0  0  0  0  0  0  0  0
    2.2429    1.0269    0.5414 N   0  0  0  0  0  0  0  0  0  0  0  0
   -0.7467    1.2356    0.7921 C   0  0  0  0  0  0  0  0  0  0  0  0
   -2.1473    1.2942    0.8849 C   0  0  0  0  0  0  0  0  0  0  0  0
   -2.9277    0.2883    0.2834 C   0  0  0  0  0  0  0  0  0  0  0  0
   -4.3312    0.0400    0.1833 C   0  0  0  0  0  0  0  0  0  0  0  0
   -5.5026    0.6761    0.6301 C   0  0  0  0  0  0  0  0  0  0  0  0
   -7.6583    0.5342    0.6269 H   0  0  0  0  0  0  0  0  0  0  0  0
   -7.6735   -1.5656   -0.6930 H   0  0  0  0  0  0  0  0  0  0  0  0
   -3.0790   -2.4262   -1.4175 H   0  0  0  0  0  0  0  0  0  0  0  0
   -0.4001   -1.6333   -1.0258 H   0  0  0  0  0  0  0  0  0  0  0  0
    8.7799   -0.2983   -0.5530 H   0  0  0  0  0  0  0  0  0  0  0  0
    7.4677    1.5368    0.6533 H   0  0  0  0  0  0  0  0  0  0  0  0
    2.0070    1.8511    1.0691 H   0  0  0  0  0  0  0  0  0  0  0  0
   -0.1860    2.0327    1.2710 H   0  0  0  0  0  0  0  0  0  0  0  0
   -2.6247    2.1116    1.4179 H   0  0  0  0  0  0  0  0  0  0  0  0
   -5.4608    1.5941    1.2057 H   0  0  0  0  0  0  0  0  0  0  0  0
  1  2  2  0
  2  3  1  0
  3  4  2  0
  4  5  1  0
  5  6  1  0
  6  7  2  0
  7  8  1  0
  8  9  1  0
  9 10  2  0
 10 11  1  0
 11 12  2  0
 12 13  1  0
 13 14  1  0
 14 15  2  0
 15 16  1  0
 16 17  1  0
 17 18  1  0
 18 19  2  0
 19 20  1  0
  8 21  2  0
 21 22  1  0
 22 23  2  0
 23 24  1  0
 24 25  2  0
 25  1  1  0
 24  4  1  0
 23  6  1  0
 20  9  1  0
 19 11  1  0
 17 13  2  0
  1 26  1  0
  2 27  1  0
  5 28  1  0
  7 29  1  0
 15 30  1  0
 16 31  1  0
 20 32  1  0
 21 33  1  0
 22 34  1  0
 25 35  1  0
M  END
