
     RDKit          3D

 35 40  0  0  0  0  0  0  0  0999 V2000
    6.5584   -0.6820   -0.1508 C   0  0  0  0  0  0  0  0  0  0  0  0
    6.1667    0.6125   -0.4858 C   0  0  0  0  0  0  0  0  0  0  0  0
    4.8924    1.0642   -0.5349 N   0  0  0  0  0  0  0  0  0  0  0  0
    3.9856    0.1188   -0.2190 C   0  0  0  0  0  0  0  0  0  0  0  0
    4.2694   -1.1987    0.1289 C   0  0  0  0  0  0  0  0  0  0  0  0
    5.5920   -1.6375    0.1714 C   0  0  0  0  0  0  0  0  0  0  0  0
    3.0773   -1.8439    0.3788 N   0  0  0  0  0  0  0  0  0  0  0  0
    2.0557   -0.9452    0.1904 C   0  0  0  0  0  0  0  0  0  0  0  0
    0.6423   -0.8270    0.2423 C   0  0  0  0  0  0  0  0  0  0  0  0
   -0.4230   -1.6843    0.5479 C   0  0  0  0  0  0  0  0  0  0  0  0
   -1.7342   -1.1848    0.4859 C   0  0  0  0  0  0  0  0  0  0  0  0
   -2.0177    0.1431    0.1202 C   0  0  0  0  0  0  0  0  0  0  0  0
   -0.9313    0.9971   -0.1724 C   0  0  0  0  0  0  0  0  0  0  0  0
    0.3795    0.5004   -0.1113 C   0  0  0  0  0  0  0  0  0  0  0  0
    1.5738    1.1457   -0.3585 N   0  0  0  0  0  0  0  0  0  0  0  0
    2.5873    0.2510   -0.1721 C   0  0  0  0  0  0  0  0  0  0  0  0
   -3.3896    0.6695    0.0570 C   0  0  0  0  0  0  0  0  0  0  0  0
   -3.5824    2.0071    0.3447 N   0  0  0  0  0  0  0  0  0  0  0  0
   -4.8214    2.5873    0.3116 C   0  0  0  0  0  0  0  0  0  0  0  0
   -6.0259    1.9758   -0.0070 C   0  0  0  0  0  0  0  0  0  0  0  0
   -5.8920    0.6131   -0.3265 C   0  0  0  0  0  0  0  0  0  0  0  0
   -6.9038   -0.1968   -0.6777 N   0  0  0  0  0  0  0  0  0  0  0  0
   -6.2364   -1.6857   -0.9701 S   0  0  0  0  0  0  0  0  0  0  0  0
   -4.6403   -1.3754   -0.6546 N   0  0  0  0  0  0  0  0  0  0  0  0
   -4.5493   -0.0783   -0.3020 C   0  0  0  0  0  0  0  0  0  0  0  0
    7.6117   -0.9437   -0.1411 H   0  0  0  0  0  0  0  0  0  0  0  0
    6.9169    1.3587   -0.7371 H   0  0  0  0  0  0  0  0  0  0  0  0
    5.8581   -2.6536    0.4369 H   0  0  0  0  0  0  0  0  0  0  0  0
    2.9367   -2.8068    0.6538 H   0  0  0  0  0  0  0  0  0  0  0  0
   -0.2465   -2.7168    0.8322 H   0  0  0  0  0  0  0  0  0  0  0  0
   -2.5401   -1.8686    0.7461 H   0  0  0  0  0  0  0  0  0  0  0  0
   -1.1080    2.0349   -0.4468 H   0  0  0  0  0  0  0  0  0  0  0  0
    1.7229    2.1087   -0.6316 H   0  0  0  0  0  0  0  0  0  0  0  0
   -4.8115    3.6461    0.5704 H   0  0  0  0  0  0  0  0  0  0  0  0
   -6.9731    2.4950   -0.0156 H   0  0  0  0  0  0  0  0  0  0  0  0
  1  2  2  0
  2  3  1  0
  3  4  2  0
  4  5  1  0
  5  6  2  0
  5  7  1  0
  7  8  1  0
  8  9  1  0
  9 10  2  0
 10 11  1  0
 11 12  2  0
 12 13  1  0
 13 14  2  0
 14 15  1  0
 15 16  1  0
 12 17  1  0
 17 18  2  0
 18 19  1  0
 19 20  2  0
 20 21  1  0
 21 22  2  0
 22 23  1  0
 23 24  1  0
 24 25  2  0
  6  1  1  0
 16  8  2  0
 25 17  1  0
 16  4  1  0
 25 21  1  0
 14  9  1  0
  1 26  1  0
  2 27  1  0
  6 28  1  0
  7 29  1  0
 10 30  1  0
 11 31  1  0
 13 32  1  0
 15 33  1  0
 19 34  1  0
 20 35  1  0
M  END
