
     RDKit          3D

 37 43  0  0  0  0  0  0  0  0999 V2000
   -2.5871   -1.5427   -3.2945 Si  0  0  0  0  0  4  0  0  0  0  0  0
   -3.7996   -0.8615   -2.0757 C   0  0  0  0  0  0  0  0  0  0  0  0
   -3.1865   -0.3420   -0.9923 C   0  0  0  0  0  0  0  0  0  0  0  0
   -3.8553    0.2582    0.1216 C   0  0  0  0  0  0  0  0  0  0  0  0
   -5.2605    0.4217    0.3025 C   0  0  0  0  0  0  0  0  0  0  0  0
   -5.5514    1.0424    1.4944 C   0  0  0  0  0  0  0  0  0  0  0  0
   -4.1408    1.4176    2.3742 S   0  0  0  0  0  0  0  0  0  0  0  0
   -3.1089    0.7571    1.1779 C   0  0  0  0  0  0  0  0  0  0  0  0
   -1.6326    0.7167    1.2465 C   0  0  0  0  0  0  0  0  0  0  0  0
   -0.8877    1.2354    2.3417 C   0  0  0  0  0  0  0  0  0  0  0  0
   -1.3410    1.8306    3.4672 N   0  0  0  0  0  0  0  0  0  0  0  0
   -0.0316    2.2420    4.4078 S   0  0  0  0  0  0  0  0  0  0  0  0
    1.2071    1.6862    3.4386 N   0  0  0  0  0  0  0  0  0  0  0  0
    0.5584    1.1885    2.3944 C   0  0  0  0  0  0  0  0  0  0  0  0
    1.2573    0.5943    1.2954 C   0  0  0  0  0  0  0  0  0  0  0  0
    2.6654    0.5021    1.2550 C   0  0  0  0  0  0  0  0  0  0  0  0
    3.0863   -0.1103    0.0922 C   0  0  0  0  0  0  0  0  0  0  0  0
    1.7399   -0.5350   -0.8783 S   0  0  0  0  0  0  0  0  0  0  0  0
    0.5423    0.0846    0.2209 C   0  0  0  0  0  0  0  0  0  0  0  0
   -0.8900    0.1255    0.1577 C   0  0  0  0  0  0  0  0  0  0  0  0
   -1.6891   -0.4218   -0.9991 C   0  0  0  0  0  0  0  0  0  0  0  0
   -1.2279   -1.0163   -2.1226 C   0  0  0  0  0  0  0  0  0  0  0  0
    4.4593   -0.4000   -0.3401 C   0  0  0  0  0  0  0  0  0  0  0  0
    5.4291   -0.0235    0.4980 N   0  0  0  0  0  0  0  0  0  0  0  0
    6.6560   -0.3037    0.0696 C   0  0  0  0  0  0  0  0  0  0  0  0
    6.9675   -0.9025   -1.0773 N   0  0  0  0  0  0  0  0  0  0  0  0
    5.9139   -1.2276   -1.8226 C   0  0  0  0  0  0  0  0  0  0  0  0
    4.6399   -1.0065   -1.5152 N   0  0  0  0  0  0  0  0  0  0  0  0
   -2.5621   -0.7805   -4.5654 H   0  0  0  0  0  0  0  0  0  0  0  0
   -2.6760   -3.0161   -3.4292 H   0  0  0  0  0  0  0  0  0  0  0  0
   -4.8592   -0.9055   -2.2685 H   0  0  0  0  0  0  0  0  0  0  0  0
   -6.0251    0.1059   -0.3955 H   0  0  0  0  0  0  0  0  0  0  0  0
   -6.5251    1.2938    1.8915 H   0  0  0  0  0  0  0  0  0  0  0  0
    3.3466    0.8568    2.0212 H   0  0  0  0  0  0  0  0  0  0  0  0
   -0.2250   -1.2275   -2.4376 H   0  0  0  0  0  0  0  0  0  0  0  0
    7.4800   -0.0178    0.7147 H   0  0  0  0  0  0  0  0  0  0  0  0
    6.1136   -1.7188   -2.7690 H   0  0  0  0  0  0  0  0  0  0  0  0
  1  2  1  0
  2  3  2  0
  3  4  1  0
  4  5  1  0
  5  6  2  0
  6  7  1  0
  7  8  1  0
  8  9  1  0
  9 10  1  0
 10 11  2  0
 11 12  1  0
 12 13  1  0
 13 14  2  0
 14 15  1  0
 15 16  1  0
 16 17  2  0
 17 18  1  0
 18 19  1  0
 19 20  1  0
 20 21  1  0
 21 22  2  0
 17 23  1  0
 23 24  2  0
 24 25  1  0
 25 26  2  0
 26 27  1  0
 27 28  2  0
 22  1  1  0
 28 23  1  0
 21  3  1  0
  8  4  2  0
 20  9  2  0
 14 10  1  0
 19 15  2  0
  1 29  1  0
  1 30  1  0
  2 31  1  0
  5 32  1  0
  6 33  1  0
 16 34  1  0
 22 35  1  0
 25 36  1  0
 27 37  1  0
M  END
