
     RDKit          3D

 33 37  0  0  0  0  0  0  0  0999 V2000
   -6.3693    0.5329   -0.6531 C   0  0  0  0  0  0  0  0  0  0  0  0
   -5.7085    1.5729   -1.2731 C   0  0  0  0  0  0  0  0  0  0  0  0
   -4.3605    1.6517   -1.3078 N   0  0  0  0  0  0  0  0  0  0  0  0
   -3.6855    0.6546   -0.7009 C   0  0  0  0  0  0  0  0  0  0  0  0
   -2.2934    0.6741   -0.6994 C   0  0  0  0  0  0  0  0  0  0  0  0
   -1.5301   -0.3311   -0.0868 C   0  0  0  0  0  0  0  0  0  0  0  0
   -0.0575   -0.3048   -0.0887 C   0  0  0  0  0  0  0  0  0  0  0  0
    0.8633   -1.1917    0.4542 C   0  0  0  0  0  0  0  0  0  0  0  0
    2.1782   -0.7239    0.1850 C   0  0  0  0  0  0  0  0  0  0  0  0
    3.4697   -1.1949    0.4809 C   0  0  0  0  0  0  0  0  0  0  0  0
    4.5989   -0.4788    0.0604 C   0  0  0  0  0  0  0  0  0  0  0  0
    6.0062   -0.6316    0.1658 C   0  0  0  0  0  0  0  0  0  0  0  0
    6.5641    0.4491   -0.4797 C   0  0  0  0  0  0  0  0  0  0  0  0
    5.5961    1.2627   -0.9788 O   0  0  0  0  0  0  0  0  0  0  0  0
    4.4030    0.6980   -0.6501 C   0  0  0  0  0  0  0  0  0  0  0  0
    3.1457    1.1926   -0.9599 C   0  0  0  0  0  0  0  0  0  0  0  0
    2.0400    0.4614   -0.5301 C   0  0  0  0  0  0  0  0  0  0  0  0
    0.6941    0.6918   -0.6816 N   0  0  0  0  0  0  0  0  0  0  0  0
   -2.2204   -1.3759    0.5358 C   0  0  0  0  0  0  0  0  0  0  0  0
   -3.6189   -1.4082    0.5420 C   0  0  0  0  0  0  0  0  0  0  0  0
   -4.3649   -0.4115   -0.0654 C   0  0  0  0  0  0  0  0  0  0  0  0
   -5.7113   -0.4742   -0.0404 N   0  0  0  0  0  0  0  0  0  0  0  0
   -7.4515    0.4787   -0.6308 H   0  0  0  0  0  0  0  0  0  0  0  0
   -6.2460    2.3769   -1.7624 H   0  0  0  0  0  0  0  0  0  0  0  0
   -1.8209    1.5132   -1.2002 H   0  0  0  0  0  0  0  0  0  0  0  0
    0.6259   -2.0969    0.9970 H   0  0  0  0  0  0  0  0  0  0  0  0
    3.5911   -2.1192    1.0387 H   0  0  0  0  0  0  0  0  0  0  0  0
    6.5466   -1.4307    0.6521 H   0  0  0  0  0  0  0  0  0  0  0  0
    7.5803    0.7691   -0.6627 H   0  0  0  0  0  0  0  0  0  0  0  0
    3.0396    2.1167   -1.5174 H   0  0  0  0  0  0  0  0  0  0  0  0
    0.3195    1.4927   -1.1675 H   0  0  0  0  0  0  0  0  0  0  0  0
   -1.6884   -2.1856    1.0285 H   0  0  0  0  0  0  0  0  0  0  0  0
   -4.1354   -2.2300    1.0319 H   0  0  0  0  0  0  0  0  0  0  0  0
  1  2  2  0
  2  3  1  0
  3  4  2  0
  4  5  1  0
  5  6  2  0
  6  7  1  0
  7  8  2  0
  8  9  1  0
  9 10  2  0
 10 11  1  0
 11 12  1  0
 12 13  2  0
 13 14  1  0
 14 15  1  0
 15 16  1  0
 16 17  2  0
 17 18  1  0
  6 19  1  0
 19 20  2  0
 20 21  1  0
 21 22  2  0
 22  1  1  0
 21  4  1  0
 18  7  1  0
 17  9  1  0
 15 11  2  0
  1 23  1  0
  2 24  1  0
  5 25  1  0
  8 26  1  0
 10 27  1  0
 12 28  1  0
 13 29  1  0
 16 30  1  0
 18 31  1  0
 19 32  1  0
 20 33  1  0
M  END
