
     RDKit          3D

 33 37  0  0  0  0  0  0  0  0999 V2000
   -6.2874    0.4775   -1.0718 C   0  0  0  0  0  0  0  0  0  0  0  0
   -5.5263    0.7061   -2.2007 C   0  0  0  0  0  0  0  0  0  0  0  0
   -4.1788    0.6383   -2.2158 N   0  0  0  0  0  0  0  0  0  0  0  0
   -3.5563    0.3296   -1.0579 C   0  0  0  0  0  0  0  0  0  0  0  0
   -2.1707    0.2472   -1.0198 C   0  0  0  0  0  0  0  0  0  0  0  0
   -1.4780   -0.0694    0.1553 C   0  0  0  0  0  0  0  0  0  0  0  0
   -0.0090   -0.1516    0.1740 C   0  0  0  0  0  0  0  0  0  0  0  0
    0.9164    0.0417   -0.8434 C   0  0  0  0  0  0  0  0  0  0  0  0
    2.2261   -0.1508   -0.3262 C   0  0  0  0  0  0  0  0  0  0  0  0
    3.5191   -0.0885   -0.8753 C   0  0  0  0  0  0  0  0  0  0  0  0
    4.6419   -0.3386   -0.0744 C   0  0  0  0  0  0  0  0  0  0  0  0
    6.0485   -0.3681   -0.2632 C   0  0  0  0  0  0  0  0  0  0  0  0
    6.5982   -0.6881    0.9579 C   0  0  0  0  0  0  0  0  0  0  0  0
    5.6257   -0.8592    1.8924 O   0  0  0  0  0  0  0  0  0  0  0  0
    4.4382   -0.6467    1.2640 C   0  0  0  0  0  0  0  0  0  0  0  0
    3.1790   -0.7171    1.8396 C   0  0  0  0  0  0  0  0  0  0  0  0
    2.0797   -0.4640    1.0214 C   0  0  0  0  0  0  0  0  0  0  0  0
    0.7338   -0.4587    1.2983 N   0  0  0  0  0  0  0  0  0  0  0  0
   -2.2649   -0.2956    1.2800 C   0  0  0  0  0  0  0  0  0  0  0  0
   -3.6179   -0.2296    1.3035 N   0  0  0  0  0  0  0  0  0  0  0  0
   -4.2391    0.0782    0.1493 C   0  0  0  0  0  0  0  0  0  0  0  0
   -5.6222    0.1608    0.1101 C   0  0  0  0  0  0  0  0  0  0  0  0
   -7.3689    0.5426   -1.1050 H   0  0  0  0  0  0  0  0  0  0  0  0
   -5.9899    0.9569   -3.1507 H   0  0  0  0  0  0  0  0  0  0  0  0
   -1.6349    0.4392   -1.9452 H   0  0  0  0  0  0  0  0  0  0  0  0
    0.6850    0.2983   -1.8691 H   0  0  0  0  0  0  0  0  0  0  0  0
    3.6467    0.1551   -1.9264 H   0  0  0  0  0  0  0  0  0  0  0  0
    6.5937   -0.1794   -1.1766 H   0  0  0  0  0  0  0  0  0  0  0  0
    7.6109   -0.8256    1.3102 H   0  0  0  0  0  0  0  0  0  0  0  0
    3.0675   -0.9614    2.8902 H   0  0  0  0  0  0  0  0  0  0  0  0
    0.3581   -0.6568    2.2135 H   0  0  0  0  0  0  0  0  0  0  0  0
   -1.8348   -0.5480    2.2438 H   0  0  0  0  0  0  0  0  0  0  0  0
   -6.1894   -0.0255    1.0181 H   0  0  0  0  0  0  0  0  0  0  0  0
  1  2  2  0
  2  3  1  0
  3  4  2  0
  4  5  1  0
  5  6  2  0
  6  7  1  0
  7  8  2  0
  8  9  1  0
  9 10  2  0
 10 11  1  0
 11 12  1  0
 12 13  2  0
 13 14  1  0
 14 15  1  0
 15 16  1  0
 16 17  2  0
 17 18  1  0
  6 19  1  0
 19 20  2  0
 20 21  1  0
 21 22  2  0
 22  1  1  0
 21  4  1  0
 18  7  1  0
 17  9  1  0
 15 11  2  0
  1 23  1  0
  2 24  1  0
  5 25  1  0
  8 26  1  0
 10 27  1  0
 12 28  1  0
 13 29  1  0
 16 30  1  0
 18 31  1  0
 19 32  1  0
 22 33  1  0
M  END
