
     RDKit          3D

 32 36  0  0  0  0  0  0  0  0999 V2000
    6.3514   -0.0148   -0.0803 C   0  0  0  0  0  0  0  0  0  0  0  0
    5.8534    0.6481   -1.1844 C   0  0  0  0  0  0  0  0  0  0  0  0
    4.5352    0.8074   -1.4255 N   0  0  0  0  0  0  0  0  0  0  0  0
    3.6712    0.2848   -0.5300 C   0  0  0  0  0  0  0  0  0  0  0  0
    2.3058    0.4227   -0.7342 C   0  0  0  0  0  0  0  0  0  0  0  0
    1.3732   -0.1022    0.1666 C   0  0  0  0  0  0  0  0  0  0  0  0
   -0.0599    0.0443   -0.0508 C   0  0  0  0  0  0  0  0  0  0  0  0
   -0.8341    0.6375   -1.0320 C   0  0  0  0  0  0  0  0  0  0  0  0
   -2.1912    0.4371   -0.6680 C   0  0  0  0  0  0  0  0  0  0  0  0
   -3.4418    0.7705   -1.2032 C   0  0  0  0  0  0  0  0  0  0  0  0
   -4.5829    0.3740   -0.5138 C   0  0  0  0  0  0  0  0  0  0  0  0
   -5.8690    0.6122   -0.8883 O   0  0  0  0  0  0  0  0  0  0  0  0
   -6.6648    0.0558    0.0629 C   0  0  0  0  0  0  0  0  0  0  0  0
   -5.9060   -0.5384    1.0461 C   0  0  0  0  0  0  0  0  0  0  0  0
   -4.5495   -0.3376    0.6813 C   0  0  0  0  0  0  0  0  0  0  0  0
   -3.2982   -0.6704    1.2155 C   0  0  0  0  0  0  0  0  0  0  0  0
   -2.1580   -0.2733    0.5253 C   0  0  0  0  0  0  0  0  0  0  0  0
   -0.8732   -0.5112    0.8992 O   0  0  0  0  0  0  0  0  0  0  0  0
    1.8888   -0.7667    1.2731 C   0  0  0  0  0  0  0  0  0  0  0  0
    3.2110   -0.9308    1.5222 N   0  0  0  0  0  0  0  0  0  0  0  0
    4.0745   -0.4100    0.6296 C   0  0  0  0  0  0  0  0  0  0  0  0
    5.4394   -0.5449    0.8290 C   0  0  0  0  0  0  0  0  0  0  0  0
    7.4194   -0.1192    0.0736 H   0  0  0  0  0  0  0  0  0  0  0  0
    6.5177    1.0819   -1.9267 H   0  0  0  0  0  0  0  0  0  0  0  0
    1.9795    0.9556   -1.6232 H   0  0  0  0  0  0  0  0  0  0  0  0
   -0.4702    1.1546   -1.9084 H   0  0  0  0  0  0  0  0  0  0  0  0
   -3.5292    1.3243   -2.1321 H   0  0  0  0  0  0  0  0  0  0  0  0
   -7.7283    0.1647   -0.0988 H   0  0  0  0  0  0  0  0  0  0  0  0
   -6.2847   -1.0526    1.9178 H   0  0  0  0  0  0  0  0  0  0  0  0
   -3.2117   -1.2242    2.1445 H   0  0  0  0  0  0  0  0  0  0  0  0
    1.2366   -1.2061    2.0246 H   0  0  0  0  0  0  0  0  0  0  0  0
    5.7955   -1.0731    1.7094 H   0  0  0  0  0  0  0  0  0  0  0  0
  1  2  2  0
  2  3  1  0
  3  4  2  0
  4  5  1  0
  5  6  2  0
  6  7  1  0
  7  8  2  0
  8  9  1  0
  9 10  2  0
 10 11  1  0
 11 12  1  0
 12 13  1  0
 13 14  2  0
 14 15  1  0
 15 16  1  0
 16 17  2  0
 17 18  1  0
  6 19  1  0
 19 20  2  0
 20 21  1  0
 21 22  2  0
 22  1  1  0
 21  4  1  0
 18  7  1  0
 17  9  1  0
 15 11  2  0
  1 23  1  0
  2 24  1  0
  5 25  1  0
  8 26  1  0
 10 27  1  0
 13 28  1  0
 14 29  1  0
 16 30  1  0
 19 31  1  0
 22 32  1  0
M  END
