
     RDKit          3D

 31 35  0  0  0  0  0  0  0  0999 V2000
    6.1426   -0.1476   -0.2358 C   0  0  0  0  0  0  0  0  0  0  0  0
    5.5875    0.3296   -1.4048 C   0  0  0  0  0  0  0  0  0  0  0  0
    4.2523    0.4448   -1.5742 N   0  0  0  0  0  0  0  0  0  0  0  0
    3.4811    0.0669   -0.5350 C   0  0  0  0  0  0  0  0  0  0  0  0
    2.0961    0.1600   -0.6434 C   0  0  0  0  0  0  0  0  0  0  0  0
    1.2361   -0.2159    0.3993 C   0  0  0  0  0  0  0  0  0  0  0  0
   -0.2281   -0.1150    0.2783 C   0  0  0  0  0  0  0  0  0  0  0  0
   -1.2356   -0.4342    1.1885 C   0  0  0  0  0  0  0  0  0  0  0  0
   -2.4848   -0.1557    0.5936 C   0  0  0  0  0  0  0  0  0  0  0  0
   -3.7556   -0.2907    1.0576 N   0  0  0  0  0  0  0  0  0  0  0  0
   -4.7254    0.0878    0.1810 C   0  0  0  0  0  0  0  0  0  0  0  0
   -6.1317    0.0998    0.2822 C   0  0  0  0  0  0  0  0  0  0  0  0
   -6.5922    0.5879   -0.9222 C   0  0  0  0  0  0  0  0  0  0  0  0
   -5.5583    0.8784   -1.7614 O   0  0  0  0  0  0  0  0  0  0  0  0
   -4.4146    0.5734   -1.0890 C   0  0  0  0  0  0  0  0  0  0  0  0
   -3.1630    0.7165   -1.5719 N   0  0  0  0  0  0  0  0  0  0  0  0
   -2.2294    0.3328   -0.6786 C   0  0  0  0  0  0  0  0  0  0  0  0
   -0.8768    0.3524   -0.8552 N   0  0  0  0  0  0  0  0  0  0  0  0
    1.8193   -0.6971    1.5756 C   0  0  0  0  0  0  0  0  0  0  0  0
    3.2094   -0.7959    1.6978 C   0  0  0  0  0  0  0  0  0  0  0  0
    4.0520   -0.4224    0.6634 C   0  0  0  0  0  0  0  0  0  0  0  0
    5.3869   -0.5308    0.8153 N   0  0  0  0  0  0  0  0  0  0  0  0
    7.2153   -0.2364   -0.1095 H   0  0  0  0  0  0  0  0  0  0  0  0
    6.2027    0.6348   -2.2434 H   0  0  0  0  0  0  0  0  0  0  0  0
    1.7097    0.5417   -1.5836 H   0  0  0  0  0  0  0  0  0  0  0  0
   -1.0985   -0.8293    2.1854 H   0  0  0  0  0  0  0  0  0  0  0  0
   -6.7305   -0.2084    1.1258 H   0  0  0  0  0  0  0  0  0  0  0  0
   -7.5786    0.7804   -1.3220 H   0  0  0  0  0  0  0  0  0  0  0  0
   -0.4408    0.6698   -1.7072 H   0  0  0  0  0  0  0  0  0  0  0  0
    1.2100   -1.0054    2.4215 H   0  0  0  0  0  0  0  0  0  0  0  0
    3.6426   -1.1727    2.6212 H   0  0  0  0  0  0  0  0  0  0  0  0
  1  2  2  0
  2  3  1  0
  3  4  2  0
  4  5  1  0
  5  6  2  0
  6  7  1  0
  7  8  2  0
  8  9  1  0
  9 10  2  0
 10 11  1  0
 11 12  1  0
 12 13  2  0
 13 14  1  0
 14 15  1  0
 15 16  1  0
 16 17  2  0
 17 18  1  0
  6 19  1  0
 19 20  2  0
 20 21  1  0
 21 22  2  0
 22  1  1  0
 21  4  1  0
 18  7  1  0
 17  9  1  0
 15 11  2  0
  1 23  1  0
  2 24  1  0
  5 25  1  0
  8 26  1  0
 12 27  1  0
 13 28  1  0
 18 29  1  0
 19 30  1  0
 20 31  1  0
M  END
