
     RDKit          3D

 31 35  0  0  0  0  0  0  0  0999 V2000
   -6.1008    0.1498    0.6277 C   0  0  0  0  0  0  0  0  0  0  0  0
   -5.5699    1.2257   -0.0554 C   0  0  0  0  0  0  0  0  0  0  0  0
   -4.2530    1.3663   -0.3140 N   0  0  0  0  0  0  0  0  0  0  0  0
   -3.4239    0.3955    0.1248 C   0  0  0  0  0  0  0  0  0  0  0  0
   -2.0597    0.4930   -0.1158 C   0  0  0  0  0  0  0  0  0  0  0  0
   -1.1580   -0.4866    0.3180 C   0  0  0  0  0  0  0  0  0  0  0  0
    0.2841   -0.3637    0.0524 C   0  0  0  0  0  0  0  0  0  0  0  0
    0.9972    0.6347   -0.6113 C   0  0  0  0  0  0  0  0  0  0  0  0
    2.3663    0.2917   -0.6025 C   0  0  0  0  0  0  0  0  0  0  0  0
    3.4588    0.9224   -1.1090 N   0  0  0  0  0  0  0  0  0  0  0  0
    4.6380    0.2754   -0.9017 C   0  0  0  0  0  0  0  0  0  0  0  0
    5.9626    0.5954   -1.2633 C   0  0  0  0  0  0  0  0  0  0  0  0
    6.7437   -0.4350   -0.7842 C   0  0  0  0  0  0  0  0  0  0  0  0
    5.9843   -1.3718   -0.1491 O   0  0  0  0  0  0  0  0  0  0  0  0
    4.6954   -0.9398   -0.2194 C   0  0  0  0  0  0  0  0  0  0  0  0
    3.6264   -1.5850    0.2922 N   0  0  0  0  0  0  0  0  0  0  0  0
    2.4779   -0.9165    0.0684 C   0  0  0  0  0  0  0  0  0  0  0  0
    1.2264   -1.2984    0.4553 N   0  0  0  0  0  0  0  0  0  0  0  0
   -1.7143   -1.5617    1.0041 C   0  0  0  0  0  0  0  0  0  0  0  0
   -3.0345   -1.7100    1.2676 N   0  0  0  0  0  0  0  0  0  0  0  0
   -3.8630   -0.7426    0.8307 C   0  0  0  0  0  0  0  0  0  0  0  0
   -5.2249   -0.8385    1.0700 C   0  0  0  0  0  0  0  0  0  0  0  0
   -7.1663    0.0773    0.8136 H   0  0  0  0  0  0  0  0  0  0  0  0
   -6.2044    2.0269   -0.4242 H   0  0  0  0  0  0  0  0  0  0  0  0
   -1.7124    1.3673   -0.6595 H   0  0  0  0  0  0  0  0  0  0  0  0
    0.5841    1.5269   -1.0619 H   0  0  0  0  0  0  0  0  0  0  0  0
    6.3022    1.4660   -1.8037 H   0  0  0  0  0  0  0  0  0  0  0  0
    7.8049   -0.6422   -0.8107 H   0  0  0  0  0  0  0  0  0  0  0  0
    1.0513   -2.1518    0.9636 H   0  0  0  0  0  0  0  0  0  0  0  0
   -1.1104   -2.3788    1.3862 H   0  0  0  0  0  0  0  0  0  0  0  0
   -5.6080   -1.6995    1.6110 H   0  0  0  0  0  0  0  0  0  0  0  0
  1  2  2  0
  2  3  1  0
  3  4  2  0
  4  5  1  0
  5  6  2  0
  6  7  1  0
  7  8  2  0
  8  9  1  0
  9 10  2  0
 10 11  1  0
 11 12  1  0
 12 13  2  0
 13 14  1  0
 14 15  1  0
 15 16  1  0
 16 17  2  0
 17 18  1  0
  6 19  1  0
 19 20  2  0
 20 21  1  0
 21 22  2  0
 22  1  1  0
 21  4  1  0
 18  7  1  0
 17  9  1  0
 15 11  2  0
  1 23  1  0
  2 24  1  0
  5 25  1  0
  8 26  1  0
 12 27  1  0
 13 28  1  0
 18 29  1  0
 19 30  1  0
 22 31  1  0
M  END
