
     RDKit          3D

 28 31  0  0  0  0  0  0  0  0999 V2000
    5.1638    0.2475   -0.0983 C   0  0  0  0  0  0  0  0  0  0  0  0
    4.5790    1.4124   -0.5539 C   0  0  0  0  0  0  0  0  0  0  0  0
    3.2445    1.6067   -0.6006 N   0  0  0  0  0  0  0  0  0  0  0  0
    2.4536    0.5981   -0.1770 C   0  0  0  0  0  0  0  0  0  0  0  0
    1.0743    0.7459   -0.2069 C   0  0  0  0  0  0  0  0  0  0  0  0
    0.2108   -0.2713    0.2231 C   0  0  0  0  0  0  0  0  0  0  0  0
   -1.2517   -0.1137    0.1938 C   0  0  0  0  0  0  0  0  0  0  0  0
   -1.8639    1.0249    0.7578 C   0  0  0  0  0  0  0  0  0  0  0  0
   -3.2539    1.2166    0.7536 C   0  0  0  0  0  0  0  0  0  0  0  0
   -4.0112    0.2124    0.1558 C   0  0  0  0  0  0  0  0  0  0  0  0
   -5.3518    0.0370   -0.0423 N   0  0  0  0  0  0  0  0  0  0  0  0
   -5.6181   -1.1140   -0.6809 N   0  0  0  0  0  0  0  0  0  0  0  0
   -4.4582   -1.7155   -0.9161 N   0  0  0  0  0  0  0  0  0  0  0  0
   -3.4596   -0.9253   -0.4132 C   0  0  0  0  0  0  0  0  0  0  0  0
   -2.0680   -1.0992   -0.3995 C   0  0  0  0  0  0  0  0  0  0  0  0
    0.8201   -1.4361    0.6806 C   0  0  0  0  0  0  0  0  0  0  0  0
    2.1579   -1.6362    0.7310 N   0  0  0  0  0  0  0  0  0  0  0  0
    2.9479   -0.6308    0.3072 C   0  0  0  0  0  0  0  0  0  0  0  0
    4.3258   -0.7774    0.3345 C   0  0  0  0  0  0  0  0  0  0  0  0
    6.2417    0.1344   -0.0785 H   0  0  0  0  0  0  0  0  0  0  0  0
    5.1827    2.2450   -0.9042 H   0  0  0  0  0  0  0  0  0  0  0  0
    0.6703    1.6805   -0.5900 H   0  0  0  0  0  0  0  0  0  0  0  0
   -1.2460    1.7902    1.2292 H   0  0  0  0  0  0  0  0  0  0  0  0
   -3.7034    2.0992    1.1957 H   0  0  0  0  0  0  0  0  0  0  0  0
   -6.1226    0.6383    0.2206 H   0  0  0  0  0  0  0  0  0  0  0  0
   -1.6457   -1.9867   -0.8604 H   0  0  0  0  0  0  0  0  0  0  0  0
    0.2304   -2.2747    1.0449 H   0  0  0  0  0  0  0  0  0  0  0  0
    4.7514   -1.7083    0.6994 H   0  0  0  0  0  0  0  0  0  0  0  0
  1  2  2  0
  2  3  1  0
  3  4  2  0
  4  5  1  0
  5  6  2  0
  6  7  1  0
  7  8  2  0
  8  9  1  0
  9 10  2  0
 10 11  1  0
 11 12  1  0
 12 13  2  0
 13 14  1  0
 14 15  2  0
  6 16  1  0
 16 17  2  0
 17 18  1  0
 18 19  2  0
 19  1  1  0
 18  4  1  0
 15  7  1  0
 14 10  1  0
  1 20  1  0
  2 21  1  0
  5 22  1  0
  8 23  1  0
  9 24  1  0
 11 25  1  0
 15 26  1  0
 16 27  1  0
 19 28  1  0
M  END
