
     RDKit          3D

 32 36  0  0  0  0  0  0  0  0999 V2000
   -5.4338    1.1993    0.7097 C   0  0  0  0  0  0  0  0  0  0  0  0
   -4.6222    2.3109    0.8449 C   0  0  0  0  0  0  0  0  0  0  0  0
   -3.2767    2.2982    0.6798 N   0  0  0  0  0  0  0  0  0  0  0  0
   -2.6790    1.1403    0.3649 C   0  0  0  0  0  0  0  0  0  0  0  0
   -1.2854    1.1383    0.1964 C   0  0  0  0  0  0  0  0  0  0  0  0
   -0.4873    0.0105   -0.1352 C   0  0  0  0  0  0  0  0  0  0  0  0
    0.9659    0.0871   -0.3027 C   0  0  0  0  0  0  0  0  0  0  0  0
    1.5623    1.0669   -1.0946 C   0  0  0  0  0  0  0  0  0  0  0  0
    2.8980    1.2127   -1.2877 N   0  0  0  0  0  0  0  0  0  0  0  0
    3.7207    0.3447   -0.6759 C   0  0  0  0  0  0  0  0  0  0  0  0
    5.0877    0.4577   -0.8505 C   0  0  0  0  0  0  0  0  0  0  0  0
    5.9302   -0.4392   -0.2167 C   0  0  0  0  0  0  0  0  0  0  0  0
    5.4983   -1.4383    0.5773 N   0  0  0  0  0  0  0  0  0  0  0  0
    4.1614   -1.5394    0.7391 C   0  0  0  0  0  0  0  0  0  0  0  0
    3.2337   -0.6834    0.1441 C   0  0  0  0  0  0  0  0  0  0  0  0
    1.8440   -0.8007    0.3269 C   0  0  0  0  0  0  0  0  0  0  0  0
   -1.2121   -1.2051   -0.3031 C   0  0  0  0  0  0  0  0  0  0  0  0
   -0.7077   -2.4096   -0.6250 N   0  0  0  0  0  0  0  0  0  0  0  0
   -1.9789   -3.4677   -0.7015 S   0  0  0  0  0  0  0  0  0  0  0  0
   -3.2380   -2.4597   -0.3240 N   0  0  0  0  0  0  0  0  0  0  0  0
   -2.7124   -1.2365   -0.1293 C   0  0  0  0  0  0  0  0  0  0  0  0
   -3.4345   -0.0452    0.2078 C   0  0  0  0  0  0  0  0  0  0  0  0
   -4.8310   -0.0059    0.3843 C   0  0  0  0  0  0  0  0  0  0  0  0
   -6.5058    1.2715    0.8540 H   0  0  0  0  0  0  0  0  0  0  0  0
   -5.0434    3.2804    1.0991 H   0  0  0  0  0  0  0  0  0  0  0  0
   -0.7831    2.0970    0.3500 H   0  0  0  0  0  0  0  0  0  0  0  0
    0.9611    1.7979   -1.6317 H   0  0  0  0  0  0  0  0  0  0  0  0
    5.4924    1.2426   -1.4792 H   0  0  0  0  0  0  0  0  0  0  0  0
    7.0079   -0.3730   -0.3370 H   0  0  0  0  0  0  0  0  0  0  0  0
    3.8445   -2.3560    1.3824 H   0  0  0  0  0  0  0  0  0  0  0  0
    1.4543   -1.5912    0.9656 H   0  0  0  0  0  0  0  0  0  0  0  0
   -5.4310   -0.9050    0.2679 H   0  0  0  0  0  0  0  0  0  0  0  0
  1  2  2  0
  2  3  1  0
  3  4  2  0
  4  5  1  0
  5  6  2  0
  6  7  1  0
  7  8  2  0
  8  9  1  0
  9 10  2  0
 10 11  1  0
 11 12  2  0
 12 13  1  0
 13 14  2  0
 14 15  1  0
 15 16  2  0
  6 17  1  0
 17 18  2  0
 18 19  1  0
 19 20  1  0
 20 21  2  0
 21 22  1  0
 22 23  2  0
 23  1  1  0
 22  4  1  0
 16  7  1  0
 21 17  1  0
 15 10  1  0
  1 24  1  0
  2 25  1  0
  5 26  1  0
  8 27  1  0
 11 28  1  0
 12 29  1  0
 14 30  1  0
 16 31  1  0
 23 32  1  0
M  END
