
     RDKit          3D

 33 37  0  0  0  0  0  0  0  0999 V2000
    6.1419   -0.1113    1.0554 C   0  0  0  0  0  0  0  0  0  0  0  0
    5.7200    1.1753    1.3259 C   0  0  0  0  0  0  0  0  0  0  0  0
    4.4704    1.6173    1.0727 N   0  0  0  0  0  0  0  0  0  0  0  0
    3.6000    0.7436    0.5257 C   0  0  0  0  0  0  0  0  0  0  0  0
    2.3026    1.1496    0.2466 C   0  0  0  0  0  0  0  0  0  0  0  0
    1.3610    0.2800   -0.3211 C   0  0  0  0  0  0  0  0  0  0  0  0
   -0.0120    0.7060   -0.6159 C   0  0  0  0  0  0  0  0  0  0  0  0
   -0.2833    1.8700   -1.3341 C   0  0  0  0  0  0  0  0  0  0  0  0
   -1.5050    2.3489   -1.6587 N   0  0  0  0  0  0  0  0  0  0  0  0
   -2.5294    1.5896   -1.2198 C   0  0  0  0  0  0  0  0  0  0  0  0
   -4.1374    2.0410   -1.5366 S   0  0  0  0  0  0  0  0  0  0  0  0
   -4.7395    0.6796   -0.7146 C   0  0  0  0  0  0  0  0  0  0  0  0
   -6.0698    0.4699   -0.6176 N   0  0  0  0  0  0  0  0  0  0  0  0
   -6.4056   -0.6446    0.0606 C   0  0  0  0  0  0  0  0  0  0  0  0
   -5.5133   -1.5353    0.6302 C   0  0  0  0  0  0  0  0  0  0  0  0
   -4.1488   -1.2834    0.5072 C   0  0  0  0  0  0  0  0  0  0  0  0
   -3.7331   -0.1289   -0.1936 C   0  0  0  0  0  0  0  0  0  0  0  0
   -2.4292    0.4080   -0.4943 C   0  0  0  0  0  0  0  0  0  0  0  0
   -1.1212   -0.0385   -0.1890 C   0  0  0  0  0  0  0  0  0  0  0  0
    1.8059   -1.0115   -0.5882 C   0  0  0  0  0  0  0  0  0  0  0  0
    3.0561   -1.4621   -0.3342 N   0  0  0  0  0  0  0  0  0  0  0  0
    3.9277   -0.5914    0.2111 C   0  0  0  0  0  0  0  0  0  0  0  0
    5.2240   -0.9942    0.4915 C   0  0  0  0  0  0  0  0  0  0  0  0
    7.1564   -0.4238    1.2751 H   0  0  0  0  0  0  0  0  0  0  0  0
    6.3922    1.9071    1.7655 H   0  0  0  0  0  0  0  0  0  0  0  0
    2.0269    2.1726    0.4956 H   0  0  0  0  0  0  0  0  0  0  0  0
    0.5324    2.4906   -1.7042 H   0  0  0  0  0  0  0  0  0  0  0  0
   -7.4768   -0.8168    0.1415 H   0  0  0  0  0  0  0  0  0  0  0  0
   -5.8720   -2.4107    1.1611 H   0  0  0  0  0  0  0  0  0  0  0  0
   -3.4241   -1.9639    0.9440 H   0  0  0  0  0  0  0  0  0  0  0  0
   -0.9896   -0.9497    0.3890 H   0  0  0  0  0  0  0  0  0  0  0  0
    1.1507   -1.7524   -1.0416 H   0  0  0  0  0  0  0  0  0  0  0  0
    5.5219   -2.0144    0.2651 H   0  0  0  0  0  0  0  0  0  0  0  0
  1  2  2  0
  2  3  1  0
  3  4  2  0
  4  5  1  0
  5  6  2  0
  6  7  1  0
  7  8  2  0
  8  9  1  0
  9 10  2  0
 10 11  1  0
 11 12  1  0
 12 13  2  0
 13 14  1  0
 14 15  2  0
 15 16  1  0
 16 17  2  0
 17 18  1  0
 18 19  2  0
  6 20  1  0
 20 21  2  0
 21 22  1  0
 22 23  2  0
 23  1  1  0
 22  4  1  0
 19  7  1  0
 18 10  1  0
 17 12  1  0
  1 24  1  0
  2 25  1  0
  5 26  1  0
  8 27  1  0
 14 28  1  0
 15 29  1  0
 16 30  1  0
 19 31  1  0
 20 32  1  0
 23 33  1  0
M  END
