
     RDKit          3D

 34 38  0  0  0  0  0  0  0  0999 V2000
   -5.6026    0.2401   -0.8389 C   0  0  0  0  0  0  0  0  0  0  0  0
   -4.8156   -0.4307   -1.7540 C   0  0  0  0  0  0  0  0  0  0  0  0
   -3.5238   -0.7517   -1.5308 N   0  0  0  0  0  0  0  0  0  0  0  0
   -2.9915   -0.3956   -0.3437 C   0  0  0  0  0  0  0  0  0  0  0  0
   -1.6692   -0.7073   -0.0644 C   0  0  0  0  0  0  0  0  0  0  0  0
   -1.0670   -0.3467    1.1482 C   0  0  0  0  0  0  0  0  0  0  0  0
    0.3267   -0.6636    1.4409 C   0  0  0  0  0  0  0  0  0  0  0  0
    0.7282   -1.4202    2.5439 C   0  0  0  0  0  0  0  0  0  0  0  0
    2.0043   -1.7373    2.8631 N   0  0  0  0  0  0  0  0  0  0  0  0
    3.0042   -1.3016    2.0612 C   0  0  0  0  0  0  0  0  0  0  0  0
    2.7243   -0.5302    0.9263 C   0  0  0  0  0  0  0  0  0  0  0  0
    1.3917   -0.2244    0.6378 C   0  0  0  0  0  0  0  0  0  0  0  0
    1.4008    0.5502   -0.5032 N   0  0  0  0  0  0  0  0  0  0  0  0
    2.6810    0.7347   -0.9651 C   0  0  0  0  0  0  0  0  0  0  0  0
    3.1514    1.4324   -2.0755 C   0  0  0  0  0  0  0  0  0  0  0  0
    4.5280    1.4124   -2.2386 C   0  0  0  0  0  0  0  0  0  0  0  0
    5.3962    0.7832   -1.4166 N   0  0  0  0  0  0  0  0  0  0  0  0
    4.9128    0.1115   -0.3424 C   0  0  0  0  0  0  0  0  0  0  0  0
    3.5356    0.0691   -0.0884 C   0  0  0  0  0  0  0  0  0  0  0  0
   -1.8721    0.3292    2.0587 C   0  0  0  0  0  0  0  0  0  0  0  0
   -3.1669    0.6544    1.8399 N   0  0  0  0  0  0  0  0  0  0  0  0
   -3.7052    0.2938    0.6584 C   0  0  0  0  0  0  0  0  0  0  0  0
   -5.0270    0.6013    0.3770 C   0  0  0  0  0  0  0  0  0  0  0  0
   -6.6371    0.4776   -1.0603 H   0  0  0  0  0  0  0  0  0  0  0  0
   -5.2117   -0.7377   -2.7181 H   0  0  0  0  0  0  0  0  0  0  0  0
   -1.1042   -1.2594   -0.8131 H   0  0  0  0  0  0  0  0  0  0  0  0
   -0.0095   -1.8228    3.2361 H   0  0  0  0  0  0  0  0  0  0  0  0
    4.0101   -1.5814    2.3537 H   0  0  0  0  0  0  0  0  0  0  0  0
    0.5742    0.9321   -0.9417 H   0  0  0  0  0  0  0  0  0  0  0  0
    2.4998    1.9537   -2.7645 H   0  0  0  0  0  0  0  0  0  0  0  0
    4.9896    1.9286   -3.0770 H   0  0  0  0  0  0  0  0  0  0  0  0
    5.6477   -0.3767    0.2875 H   0  0  0  0  0  0  0  0  0  0  0  0
   -1.4861    0.6522    3.0237 H   0  0  0  0  0  0  0  0  0  0  0  0
   -5.6172    1.1306    1.1203 H   0  0  0  0  0  0  0  0  0  0  0  0
  1  2  2  0
  2  3  1  0
  3  4  2  0
  4  5  1  0
  5  6  2  0
  6  7  1  0
  7  8  2  0
  8  9  1  0
  9 10  2  0
 10 11  1  0
 11 12  2  0
 12 13  1  0
 13 14  1  0
 14 15  2  0
 15 16  1  0
 16 17  2  0
 17 18  1  0
 18 19  2  0
  6 20  1  0
 20 21  2  0
 21 22  1  0
 22 23  2  0
 23  1  1  0
 22  4  1  0
 12  7  1  0
 19 14  1  0
 19 11  1  0
  1 24  1  0
  2 25  1  0
  5 26  1  0
  8 27  1  0
 10 28  1  0
 13 29  1  0
 15 30  1  0
 16 31  1  0
 18 32  1  0
 20 33  1  0
 23 34  1  0
M  END
