
     RDKit          3D

 30 34  0  0  0  0  0  0  0  0999 V2000
   -6.2339   -0.3148    0.0403 C   0  0  0  0  0  0  0  0  0  0  0  0
   -5.8347    0.8603    0.6420 C   0  0  0  0  0  0  0  0  0  0  0  0
   -4.5330    1.1961    0.7740 N   0  0  0  0  0  0  0  0  0  0  0  0
   -3.6338    0.3196    0.2849 C   0  0  0  0  0  0  0  0  0  0  0  0
   -2.2755    0.6064    0.3893 C   0  0  0  0  0  0  0  0  0  0  0  0
   -1.2880   -0.2632   -0.0992 C   0  0  0  0  0  0  0  0  0  0  0  0
    0.1629    0.0064   -0.0070 C   0  0  0  0  0  0  0  0  0  0  0  0
    1.0853   -0.8169   -0.4690 N   0  0  0  0  0  0  0  0  0  0  0  0
    2.3524   -0.3108   -0.2467 C   0  0  0  0  0  0  0  0  0  0  0  0
    3.5614   -0.9197   -0.6061 C   0  0  0  0  0  0  0  0  0  0  0  0
    4.7761   -0.2964   -0.3208 C   0  0  0  0  0  0  0  0  0  0  0  0
    6.3842   -0.8170   -0.6474 S   0  0  0  0  0  0  0  0  0  0  0  0
    6.9827    0.6124    0.0807 C   0  0  0  0  0  0  0  0  0  0  0  0
    6.0853    1.4495    0.5491 N   0  0  0  0  0  0  0  0  0  0  0  0
    4.8178    0.9398    0.3249 C   0  0  0  0  0  0  0  0  0  0  0  0
    3.6073    1.5468    0.6834 C   0  0  0  0  0  0  0  0  0  0  0  0
    2.3937    0.9220    0.3973 C   0  0  0  0  0  0  0  0  0  0  0  0
    0.7894    1.4371    0.7209 S   0  0  0  0  0  0  0  0  0  0  0  0
   -1.7176   -1.4509   -0.7065 C   0  0  0  0  0  0  0  0  0  0  0  0
   -3.0784   -1.7511   -0.8178 C   0  0  0  0  0  0  0  0  0  0  0  0
   -4.0456   -0.8863   -0.3325 C   0  0  0  0  0  0  0  0  0  0  0  0
   -5.3490   -1.2056   -0.4558 N   0  0  0  0  0  0  0  0  0  0  0  0
   -7.2810   -0.5756   -0.0609 H   0  0  0  0  0  0  0  0  0  0  0  0
   -6.5525    1.5695    1.0375 H   0  0  0  0  0  0  0  0  0  0  0  0
   -2.0106    1.5443    0.8713 H   0  0  0  0  0  0  0  0  0  0  0  0
    3.5381   -1.8822   -1.1092 H   0  0  0  0  0  0  0  0  0  0  0  0
    8.0448    0.8094    0.1480 H   0  0  0  0  0  0  0  0  0  0  0  0
    3.6300    2.5094    1.1865 H   0  0  0  0  0  0  0  0  0  0  0  0
   -0.9904   -2.1597   -1.1020 H   0  0  0  0  0  0  0  0  0  0  0  0
   -3.3876   -2.6789   -1.2931 H   0  0  0  0  0  0  0  0  0  0  0  0
  1  2  2  0
  2  3  1  0
  3  4  2  0
  4  5  1  0
  5  6  2  0
  6  7  1  0
  7  8  2  0
  8  9  1  0
  9 10  2  0
 10 11  1  0
 11 12  1  0
 12 13  1  0
 13 14  2  0
 14 15  1  0
 15 16  1  0
 16 17  2  0
 17 18  1  0
  6 19  1  0
 19 20  2  0
 20 21  1  0
 21 22  2  0
 22  1  1  0
 21  4  1  0
 18  7  1  0
 17  9  1  0
 15 11  2  0
  1 23  1  0
  2 24  1  0
  5 25  1  0
 10 26  1  0
 13 27  1  0
 16 28  1  0
 19 29  1  0
 20 30  1  0
M  END
