
     RDKit          3D

 30 34  0  0  0  0  0  0  0  0999 V2000
    6.0179    0.3498   -0.3849 C   0  0  0  0  0  0  0  0  0  0  0  0
    5.3771    1.5728   -0.4153 C   0  0  0  0  0  0  0  0  0  0  0  0
    4.0362    1.7139   -0.3457 N   0  0  0  0  0  0  0  0  0  0  0  0
    3.2992    0.5891   -0.2412 C   0  0  0  0  0  0  0  0  0  0  0  0
    1.9170    0.6875   -0.1668 C   0  0  0  0  0  0  0  0  0  0  0  0
    1.1104   -0.4493   -0.0577 C   0  0  0  0  0  0  0  0  0  0  0  0
   -0.3502   -0.3982    0.0238 C   0  0  0  0  0  0  0  0  0  0  0  0
   -1.1460   -1.4537    0.1279 N   0  0  0  0  0  0  0  0  0  0  0  0
   -2.4193   -0.9589    0.1742 C   0  0  0  0  0  0  0  0  0  0  0  0
   -3.5758   -1.6564    0.2794 N   0  0  0  0  0  0  0  0  0  0  0  0
   -4.6923   -0.8882    0.3015 C   0  0  0  0  0  0  0  0  0  0  0  0
   -5.9928   -1.3034    0.3994 N   0  0  0  0  0  0  0  0  0  0  0  0
   -6.7018   -0.1928    0.3792 C   0  0  0  0  0  0  0  0  0  0  0  0
   -5.9139    0.9239    0.2722 N   0  0  0  0  0  0  0  0  0  0  0  0
   -4.6209    0.5003    0.2209 C   0  0  0  0  0  0  0  0  0  0  0  0
   -3.4923    1.2326    0.1154 N   0  0  0  0  0  0  0  0  0  0  0  0
   -2.4100    0.4274    0.0973 C   0  0  0  0  0  0  0  0  0  0  0  0
   -1.0958    0.7656    0.0028 N   0  0  0  0  0  0  0  0  0  0  0  0
    1.7658   -1.6754   -0.0280 C   0  0  0  0  0  0  0  0  0  0  0  0
    3.1109   -1.8263   -0.0973 N   0  0  0  0  0  0  0  0  0  0  0  0
    3.8524   -0.7079   -0.2017 C   0  0  0  0  0  0  0  0  0  0  0  0
    5.2333   -0.7958   -0.2766 C   0  0  0  0  0  0  0  0  0  0  0  0
    7.0984    0.2836   -0.4437 H   0  0  0  0  0  0  0  0  0  0  0  0
    5.9390    2.4991   -0.4988 H   0  0  0  0  0  0  0  0  0  0  0  0
    1.4914    1.6853   -0.1972 H   0  0  0  0  0  0  0  0  0  0  0  0
   -7.7812   -0.1336    0.4383 H   0  0  0  0  0  0  0  0  0  0  0  0
   -6.2214    1.8840    0.2371 H   0  0  0  0  0  0  0  0  0  0  0  0
   -0.7475    1.7084   -0.0692 H   0  0  0  0  0  0  0  0  0  0  0  0
    1.2093   -2.6079    0.0555 H   0  0  0  0  0  0  0  0  0  0  0  0
    5.7031   -1.7755   -0.2497 H   0  0  0  0  0  0  0  0  0  0  0  0
  1  2  2  0
  2  3  1  0
  3  4  2  0
  4  5  1  0
  5  6  2  0
  6  7  1  0
  7  8  2  0
  8  9  1  0
  9 10  2  0
 10 11  1  0
 11 12  1  0
 12 13  2  0
 13 14  1  0
 14 15  1  0
 15 16  1  0
 16 17  2  0
 17 18  1  0
  6 19  1  0
 19 20  2  0
 20 21  1  0
 21 22  2  0
 22  1  1  0
 21  4  1  0
 18  7  1  0
 17  9  1  0
 15 11  2  0
  1 23  1  0
  2 24  1  0
  5 25  1  0
 13 26  1  0
 14 27  1  0
 18 28  1  0
 19 29  1  0
 22 30  1  0
M  END
