
     RDKit          3D

 40 44  0  0  0  0  0  0  0  0999 V2000
    6.9936   -1.0296   -0.0470 C   0  0  0  0  0  0  0  0  0  0  0  0
    6.3783   -1.3886    1.1313 C   0  0  0  0  0  0  0  0  0  0  0  0
    5.0494   -1.2539    1.3148 N   0  0  0  0  0  0  0  0  0  0  0  0
    4.3421   -0.7490    0.2939 C   0  0  0  0  0  0  0  0  0  0  0  0
    3.0207   -0.6049    0.4563 N   0  0  0  0  0  0  0  0  0  0  0  0
    2.2998   -0.0914   -0.5707 C   0  0  0  0  0  0  0  0  0  0  0  0
    0.8466    0.0521   -0.3482 C   0  0  0  0  0  0  0  0  0  0  0  0
    0.1796   -0.7627    0.5804 C   0  0  0  0  0  0  0  0  0  0  0  0
   -1.2056   -0.6583    0.8110 C   0  0  0  0  0  0  0  0  0  0  0  0
   -1.9818    0.2686    0.0913 C   0  0  0  0  0  0  0  0  0  0  0  0
   -1.3214    1.1160   -0.8184 C   0  0  0  0  0  0  0  0  0  0  0  0
    0.0667    0.9962   -1.0343 C   0  0  0  0  0  0  0  0  0  0  0  0
   -2.0889    2.1371   -1.6224 C   0  0  0  0  0  0  0  0  0  0  0  0
   -3.4612    2.4185   -1.0293 C   0  0  0  0  0  0  0  0  0  0  0  0
   -4.1407    1.1036   -0.6850 C   0  0  0  0  0  0  0  0  0  0  0  0
   -3.3590    0.3899    0.3220 N   0  0  0  0  0  0  0  0  0  0  0  0
   -4.0181   -0.7269    0.9965 C   0  0  0  0  0  0  0  0  0  0  0  0
   -3.2242   -1.1300    2.2281 C   0  0  0  0  0  0  0  0  0  0  0  0
   -1.8405   -1.5990    1.8047 C   0  0  0  0  0  0  0  0  0  0  0  0
    2.9402    0.2516   -1.7537 C   0  0  0  0  0  0  0  0  0  0  0  0
    4.2734    0.1184   -1.9472 N   0  0  0  0  0  0  0  0  0  0  0  0
    4.9812   -0.3788   -0.9281 C   0  0  0  0  0  0  0  0  0  0  0  0
    6.3043   -0.5223   -1.0885 N   0  0  0  0  0  0  0  0  0  0  0  0
    8.0628   -1.1394   -0.1902 H   0  0  0  0  0  0  0  0  0  0  0  0
    6.9364   -1.7967    1.9666 H   0  0  0  0  0  0  0  0  0  0  0  0
    0.7480   -1.5034    1.1439 H   0  0  0  0  0  0  0  0  0  0  0  0
    0.5288    1.6788   -1.7446 H   0  0  0  0  0  0  0  0  0  0  0  0
   -1.5255    3.0760   -1.6775 H   0  0  0  0  0  0  0  0  0  0  0  0
   -2.2012    1.7541   -2.6444 H   0  0  0  0  0  0  0  0  0  0  0  0
   -4.0668    2.9906   -1.7407 H   0  0  0  0  0  0  0  0  0  0  0  0
   -3.3568    3.0302   -0.1236 H   0  0  0  0  0  0  0  0  0  0  0  0
   -4.2676    0.4809   -1.5798 H   0  0  0  0  0  0  0  0  0  0  0  0
   -5.1417    1.3170   -0.2921 H   0  0  0  0  0  0  0  0  0  0  0  0
   -5.0247   -0.4257    1.3099 H   0  0  0  0  0  0  0  0  0  0  0  0
   -4.1312   -1.5738    0.3076 H   0  0  0  0  0  0  0  0  0  0  0  0
   -3.1349   -0.2731    2.9085 H   0  0  0  0  0  0  0  0  0  0  0  0
   -3.7393   -1.9276    2.7745 H   0  0  0  0  0  0  0  0  0  0  0  0
   -1.9136   -2.5904    1.3405 H   0  0  0  0  0  0  0  0  0  0  0  0
   -1.2077   -1.6925    2.6952 H   0  0  0  0  0  0  0  0  0  0  0  0
    2.4003    0.6384   -2.6113 H   0  0  0  0  0  0  0  0  0  0  0  0
  1  2  2  0
  2  3  1  0
  3  4  2  0
  4  5  1  0
  5  6  2  0
  6  7  1  0
  7  8  2  0
  8  9  1  0
  9 10  2  0
 10 11  1  0
 11 12  2  0
 11 13  1  0
 13 14  1  0
 14 15  1  0
 15 16  1  0
 16 17  1  0
 17 18  1  0
 18 19  1  0
  6 20  1  0
 20 21  2  0
 21 22  1  0
 22 23  2  0
 23  1  1  0
 22  4  1  0
 12  7  1  0
 19  9  1  0
 16 10  1  0
  1 24  1  0
  2 25  1  0
  8 26  1  0
 12 27  1  0
 13 28  1  0
 13 29  1  0
 14 30  1  0
 14 31  1  0
 15 32  1  0
 15 33  1  0
 17 34  1  0
 17 35  1  0
 18 36  1  0
 18 37  1  0
 19 38  1  0
 19 39  1  0
 20 40  1  0
M  END
