
     RDKit          3D

 31 35  0  0  0  0  0  0  0  0999 V2000
    6.2134   -1.0929    1.2989 C   0  0  0  0  0  0  0  0  0  0  0  0
    5.3212   -1.8261    2.0494 C   0  0  0  0  0  0  0  0  0  0  0  0
    3.9864   -1.6938    1.9076 N   0  0  0  0  0  0  0  0  0  0  0  0
    3.5581   -0.8100    0.9966 C   0  0  0  0  0  0  0  0  0  0  0  0
    2.2357   -0.6675    0.8441 N   0  0  0  0  0  0  0  0  0  0  0  0
    1.8175    0.2274   -0.0782 C   0  0  0  0  0  0  0  0  0  0  0  0
    0.3709    0.3400   -0.2002 C   0  0  0  0  0  0  0  0  0  0  0  0
   -0.4429    1.1192   -1.0053 C   0  0  0  0  0  0  0  0  0  0  0  0
   -1.8008    0.8181   -0.7014 C   0  0  0  0  0  0  0  0  0  0  0  0
   -3.0394    1.2798   -1.1817 C   0  0  0  0  0  0  0  0  0  0  0  0
   -4.2369    0.7693   -0.6617 C   0  0  0  0  0  0  0  0  0  0  0  0
   -5.6226    0.9811   -0.8855 C   0  0  0  0  0  0  0  0  0  0  0  0
   -6.2890    0.1399   -0.0230 C   0  0  0  0  0  0  0  0  0  0  0  0
   -5.4086   -0.5801    0.7215 O   0  0  0  0  0  0  0  0  0  0  0  0
   -4.1626   -0.1971    0.3327 C   0  0  0  0  0  0  0  0  0  0  0  0
   -2.9616   -0.6766    0.8313 C   0  0  0  0  0  0  0  0  0  0  0  0
   -1.7856   -0.1534    0.2981 C   0  0  0  0  0  0  0  0  0  0  0  0
   -0.4710   -0.4236    0.5816 N   0  0  0  0  0  0  0  0  0  0  0  0
    2.7156    0.9626   -0.8306 C   0  0  0  0  0  0  0  0  0  0  0  0
    4.0550    0.8347   -0.6934 N   0  0  0  0  0  0  0  0  0  0  0  0
    4.4852   -0.0479    0.2166 C   0  0  0  0  0  0  0  0  0  0  0  0
    5.8069   -0.1977    0.3763 N   0  0  0  0  0  0  0  0  0  0  0  0
    7.2857   -1.2030    1.4169 H   0  0  0  0  0  0  0  0  0  0  0  0
    5.6538   -2.5448    2.7903 H   0  0  0  0  0  0  0  0  0  0  0  0
   -0.1103    1.8378   -1.7431 H   0  0  0  0  0  0  0  0  0  0  0  0
   -3.0677    2.0368   -1.9605 H   0  0  0  0  0  0  0  0  0  0  0  0
   -6.0790    1.6626   -1.5886 H   0  0  0  0  0  0  0  0  0  0  0  0
   -7.3336   -0.0561    0.1742 H   0  0  0  0  0  0  0  0  0  0  0  0
   -2.9496   -1.4325    1.6090 H   0  0  0  0  0  0  0  0  0  0  0  0
   -0.1383   -1.0895    1.2681 H   0  0  0  0  0  0  0  0  0  0  0  0
    2.3939    1.6834   -1.5736 H   0  0  0  0  0  0  0  0  0  0  0  0
  1  2  2  0
  2  3  1  0
  3  4  2  0
  4  5  1  0
  5  6  2  0
  6  7  1  0
  7  8  2  0
  8  9  1  0
  9 10  2  0
 10 11  1  0
 11 12  1  0
 12 13  2  0
 13 14  1  0
 14 15  1  0
 15 16  1  0
 16 17  2  0
 17 18  1  0
  6 19  1  0
 19 20  2  0
 20 21  1  0
 21 22  2  0
 22  1  1  0
 21  4  1  0
 18  7  1  0
 17  9  1  0
 15 11  2  0
  1 23  1  0
  2 24  1  0
  8 25  1  0
 10 26  1  0
 12 27  1  0
 13 28  1  0
 16 29  1  0
 18 30  1  0
 19 31  1  0
M  END
