
     RDKit          3D

 29 33  0  0  0  0  0  0  0  0999 V2000
   -6.1656    0.0894   -0.7893 C   0  0  0  0  0  0  0  0  0  0  0  0
   -5.5742    1.3329   -0.7997 C   0  0  0  0  0  0  0  0  0  0  0  0
   -4.2446    1.4945   -0.6432 N   0  0  0  0  0  0  0  0  0  0  0  0
   -3.5121    0.3849   -0.4751 C   0  0  0  0  0  0  0  0  0  0  0  0
   -2.1893    0.5231   -0.3177 N   0  0  0  0  0  0  0  0  0  0  0  0
   -1.4592   -0.5988   -0.1491 C   0  0  0  0  0  0  0  0  0  0  0  0
   -0.0251   -0.3666    0.0158 C   0  0  0  0  0  0  0  0  0  0  0  0
    0.6771    0.8382    0.0220 C   0  0  0  0  0  0  0  0  0  0  0  0
    2.0449    0.5567    0.2136 C   0  0  0  0  0  0  0  0  0  0  0  0
    3.1338    1.3662    0.2955 N   0  0  0  0  0  0  0  0  0  0  0  0
    4.3146    0.7183    0.4886 C   0  0  0  0  0  0  0  0  0  0  0  0
    5.6360    1.1911    0.6228 C   0  0  0  0  0  0  0  0  0  0  0  0
    6.4211    0.0714    0.7983 C   0  0  0  0  0  0  0  0  0  0  0  0
    5.6673   -1.0640    0.7809 O   0  0  0  0  0  0  0  0  0  0  0  0
    4.3779   -0.6711    0.5915 C   0  0  0  0  0  0  0  0  0  0  0  0
    3.3134   -1.4970    0.5138 N   0  0  0  0  0  0  0  0  0  0  0  0
    2.1631   -0.8217    0.3227 C   0  0  0  0  0  0  0  0  0  0  0  0
    0.9161   -1.3638    0.2026 N   0  0  0  0  0  0  0  0  0  0  0  0
   -2.0631   -1.8445   -0.1400 C   0  0  0  0  0  0  0  0  0  0  0  0
   -3.3954   -2.0132   -0.2964 N   0  0  0  0  0  0  0  0  0  0  0  0
   -4.1277   -0.9052   -0.4644 C   0  0  0  0  0  0  0  0  0  0  0  0
   -5.4510   -1.0417   -0.6219 N   0  0  0  0  0  0  0  0  0  0  0  0
   -7.2353   -0.0358   -0.9155 H   0  0  0  0  0  0  0  0  0  0  0  0
   -6.1527    2.2402   -0.9347 H   0  0  0  0  0  0  0  0  0  0  0  0
    0.2365    1.8197   -0.1006 H   0  0  0  0  0  0  0  0  0  0  0  0
    5.9705    2.2172    0.5948 H   0  0  0  0  0  0  0  0  0  0  0  0
    7.4822   -0.0814    0.9424 H   0  0  0  0  0  0  0  0  0  0  0  0
    0.7484   -2.3576    0.2494 H   0  0  0  0  0  0  0  0  0  0  0  0
   -1.5074   -2.7650   -0.0071 H   0  0  0  0  0  0  0  0  0  0  0  0
  1  2  2  0
  2  3  1  0
  3  4  2  0
  4  5  1  0
  5  6  2  0
  6  7  1  0
  7  8  2  0
  8  9  1  0
  9 10  2  0
 10 11  1  0
 11 12  1  0
 12 13  2  0
 13 14  1  0
 14 15  1  0
 15 16  1  0
 16 17  2  0
 17 18  1  0
  6 19  1  0
 19 20  2  0
 20 21  1  0
 21 22  2  0
 22  1  1  0
 21  4  1  0
 18  7  1  0
 17  9  1  0
 15 11  2  0
  1 23  1  0
  2 24  1  0
  8 25  1  0
 12 26  1  0
 13 27  1  0
 18 28  1  0
 19 29  1  0
M  END
