
     RDKit          3D

 28 32  0  0  0  0  0  0  0  0999 V2000
    6.3093    0.3625    0.0183 C   0  0  0  0  0  0  0  0  0  0  0  0
    5.7744    0.6574   -1.2159 C   0  0  0  0  0  0  0  0  0  0  0  0
    4.4447    0.6455   -1.4417 N   0  0  0  0  0  0  0  0  0  0  0  0
    3.6550    0.3321   -0.4066 C   0  0  0  0  0  0  0  0  0  0  0  0
    2.3325    0.3160   -0.6148 N   0  0  0  0  0  0  0  0  0  0  0  0
    1.5395   -0.0016    0.4355 C   0  0  0  0  0  0  0  0  0  0  0  0
    0.0848   -0.0250    0.2287 C   0  0  0  0  0  0  0  0  0  0  0  0
   -0.7917   -0.3188    1.1720 N   0  0  0  0  0  0  0  0  0  0  0  0
   -2.0804   -0.2565    0.6717 C   0  0  0  0  0  0  0  0  0  0  0  0
   -3.2578   -0.5068    1.3879 C   0  0  0  0  0  0  0  0  0  0  0  0
   -4.4991   -0.4084    0.7593 C   0  0  0  0  0  0  0  0  0  0  0  0
   -6.0787   -0.6595    1.3967 S   0  0  0  0  0  0  0  0  0  0  0  0
   -6.7438   -0.2931   -0.1378 C   0  0  0  0  0  0  0  0  0  0  0  0
   -5.8883    0.0018   -1.0900 N   0  0  0  0  0  0  0  0  0  0  0  0
   -4.5997   -0.0609   -0.5883 C   0  0  0  0  0  0  0  0  0  0  0  0
   -3.4211    0.1890   -1.3026 C   0  0  0  0  0  0  0  0  0  0  0  0
   -2.1805    0.0903   -0.6730 C   0  0  0  0  0  0  0  0  0  0  0  0
   -0.6048    0.3403   -1.3070 S   0  0  0  0  0  0  0  0  0  0  0  0
    2.0865   -0.2967    1.6729 C   0  0  0  0  0  0  0  0  0  0  0  0
    3.4199   -0.2870    1.9079 N   0  0  0  0  0  0  0  0  0  0  0  0
    4.2113    0.0258    0.8753 C   0  0  0  0  0  0  0  0  0  0  0  0
    5.5358    0.0441    1.0757 N   0  0  0  0  0  0  0  0  0  0  0  0
    7.3791    0.3732    0.1953 H   0  0  0  0  0  0  0  0  0  0  0  0
    6.4003    0.9130   -2.0638 H   0  0  0  0  0  0  0  0  0  0  0  0
   -3.1906   -0.7781    2.4377 H   0  0  0  0  0  0  0  0  0  0  0  0
   -7.8127   -0.3056   -0.3075 H   0  0  0  0  0  0  0  0  0  0  0  0
   -3.4890    0.4603   -2.3526 H   0  0  0  0  0  0  0  0  0  0  0  0
    1.4651   -0.5534    2.5261 H   0  0  0  0  0  0  0  0  0  0  0  0
  1  2  2  0
  2  3  1  0
  3  4  2  0
  4  5  1  0
  5  6  2  0
  6  7  1  0
  7  8  2  0
  8  9  1  0
  9 10  2  0
 10 11  1  0
 11 12  1  0
 12 13  1  0
 13 14  2  0
 14 15  1  0
 15 16  1  0
 16 17  2  0
 17 18  1  0
  6 19  1  0
 19 20  2  0
 20 21  1  0
 21 22  2  0
 22  1  1  0
 21  4  1  0
 18  7  1  0
 17  9  1  0
 15 11  2  0
  1 23  1  0
  2 24  1  0
 10 25  1  0
 13 26  1  0
 16 27  1  0
 19 28  1  0
M  END
