
     RDKit          3D

 35 39  0  0  0  0  0  0  0  0999 V2000
    4.7995    1.6490   -1.0711 C   0  0  0  0  0  0  0  0  0  0  0  0
    5.1564    1.5249    0.2560 C   0  0  0  0  0  0  0  0  0  0  0  0
    4.4111    0.8821    1.1814 N   0  0  0  0  0  0  0  0  0  0  0  0
    3.2568    0.3252    0.8100 C   0  0  0  0  0  0  0  0  0  0  0  0
    2.5319   -0.3044    1.7358 N   0  0  0  0  0  0  0  0  0  0  0  0
    1.3566   -0.8726    1.3730 C   0  0  0  0  0  0  0  0  0  0  0  0
    0.8298   -0.8455    0.0892 C   0  0  0  0  0  0  0  0  0  0  0  0
   -0.4469   -1.4704   -0.2331 C   0  0  0  0  0  0  0  0  0  0  0  0
   -0.4951   -2.7755   -0.7617 C   0  0  0  0  0  0  0  0  0  0  0  0
   -1.7071   -3.3840   -1.0736 C   0  0  0  0  0  0  0  0  0  0  0  0
   -2.9135   -2.7147   -0.8722 C   0  0  0  0  0  0  0  0  0  0  0  0
   -2.8615   -1.4169   -0.3496 C   0  0  0  0  0  0  0  0  0  0  0  0
   -3.8906   -0.5521   -0.0615 N   0  0  0  0  0  0  0  0  0  0  0  0
   -3.4129    0.6339    0.4347 C   0  0  0  0  0  0  0  0  0  0  0  0
   -4.0939    1.7725    0.8462 C   0  0  0  0  0  0  0  0  0  0  0  0
   -3.3920    2.8310    1.3052 N   0  0  0  0  0  0  0  0  0  0  0  0
   -2.0456    2.7492    1.3529 C   0  0  0  0  0  0  0  0  0  0  0  0
   -1.3058    1.6446    0.9566 C   0  0  0  0  0  0  0  0  0  0  0  0
   -2.0228    0.5356    0.4755 C   0  0  0  0  0  0  0  0  0  0  0  0
   -1.6661   -0.7696   -0.0223 C   0  0  0  0  0  0  0  0  0  0  0  0
    1.5910   -0.1910   -0.8770 C   0  0  0  0  0  0  0  0  0  0  0  0
    2.8128    0.4032   -0.5251 C   0  0  0  0  0  0  0  0  0  0  0  0
    3.6021    1.0759   -1.4690 C   0  0  0  0  0  0  0  0  0  0  0  0
    5.4353    2.1766   -1.7729 H   0  0  0  0  0  0  0  0  0  0  0  0
    6.0827    1.9523    0.6302 H   0  0  0  0  0  0  0  0  0  0  0  0
    0.8266   -1.3656    2.1853 H   0  0  0  0  0  0  0  0  0  0  0  0
    0.4299   -3.3254   -0.9284 H   0  0  0  0  0  0  0  0  0  0  0  0
   -1.7139   -4.3939   -1.4779 H   0  0  0  0  0  0  0  0  0  0  0  0
   -3.8580   -3.1917   -1.1156 H   0  0  0  0  0  0  0  0  0  0  0  0
   -4.8682   -0.7637   -0.1997 H   0  0  0  0  0  0  0  0  0  0  0  0
   -5.1723    1.8700    0.8232 H   0  0  0  0  0  0  0  0  0  0  0  0
   -1.5465    3.6354    1.7366 H   0  0  0  0  0  0  0  0  0  0  0  0
   -0.2253    1.6584    1.0261 H   0  0  0  0  0  0  0  0  0  0  0  0
    1.2286   -0.1371   -1.9014 H   0  0  0  0  0  0  0  0  0  0  0  0
    3.2871    1.1541   -2.5062 H   0  0  0  0  0  0  0  0  0  0  0  0
  1  2  2  0
  2  3  1  0
  3  4  2  0
  4  5  1  0
  5  6  2  0
  6  7  1  0
  7  8  1  0
  8  9  2  0
  9 10  1  0
 10 11  2  0
 11 12  1  0
 12 13  1  0
 13 14  1  0
 14 15  2  0
 15 16  1  0
 16 17  2  0
 17 18  1  0
 18 19  2  0
 19 20  1  0
  7 21  2  0
 21 22  1  0
 22 23  2  0
 23  1  1  0
 22  4  1  0
 20  8  1  0
 20 12  2  0
 19 14  1  0
  1 24  1  0
  2 25  1  0
  6 26  1  0
  9 27  1  0
 10 28  1  0
 11 29  1  0
 13 30  1  0
 15 31  1  0
 17 32  1  0
 18 33  1  0
 21 34  1  0
 23 35  1  0
M  END
