
     RDKit          3D

 35 39  0  0  0  0  0  0  0  0999 V2000
   -4.8640    1.3529   -1.2503 C   0  0  0  0  0  0  0  0  0  0  0  0
   -5.1469    1.5232    0.0894 C   0  0  0  0  0  0  0  0  0  0  0  0
   -4.3534    1.0837    1.0905 N   0  0  0  0  0  0  0  0  0  0  0  0
   -3.2233    0.4426    0.7867 C   0  0  0  0  0  0  0  0  0  0  0  0
   -2.4503    0.0156    1.7861 N   0  0  0  0  0  0  0  0  0  0  0  0
   -1.2991   -0.6353    1.4924 C   0  0  0  0  0  0  0  0  0  0  0  0
   -0.8438   -0.8942    0.2067 C   0  0  0  0  0  0  0  0  0  0  0  0
    0.4107   -1.5928   -0.0414 C   0  0  0  0  0  0  0  0  0  0  0  0
    0.4309   -2.9651   -0.3705 C   0  0  0  0  0  0  0  0  0  0  0  0
    1.6288   -3.6417   -0.6072 C   0  0  0  0  0  0  0  0  0  0  0  0
    2.8534   -2.9776   -0.5277 C   0  0  0  0  0  0  0  0  0  0  0  0
    2.8131   -1.6222   -0.2061 C   0  0  0  0  0  0  0  0  0  0  0  0
    3.9082   -0.8248   -0.0905 O   0  0  0  0  0  0  0  0  0  0  0  0
    3.4644    0.4201    0.2257 C   0  0  0  0  0  0  0  0  0  0  0  0
    4.2806    1.5313    0.4301 C   0  0  0  0  0  0  0  0  0  0  0  0
    3.6385    2.7315    0.7463 C   0  0  0  0  0  0  0  0  0  0  0  0
    2.2479    2.7977    0.8471 C   0  0  0  0  0  0  0  0  0  0  0  0
    1.4527    1.6617    0.6348 C   0  0  0  0  0  0  0  0  0  0  0  0
    2.0762    0.4374    0.3174 C   0  0  0  0  0  0  0  0  0  0  0  0
    1.6459   -0.9021    0.0390 C   0  0  0  0  0  0  0  0  0  0  0  0
   -1.6554   -0.4511   -0.8355 C   0  0  0  0  0  0  0  0  0  0  0  0
   -2.8538    0.2241   -0.5555 C   0  0  0  0  0  0  0  0  0  0  0  0
   -3.6923    0.6896   -1.5786 C   0  0  0  0  0  0  0  0  0  0  0  0
   -5.5361    1.7263   -2.0144 H   0  0  0  0  0  0  0  0  0  0  0  0
   -6.0498    2.0350    0.4116 H   0  0  0  0  0  0  0  0  0  0  0  0
   -0.7282   -0.9502    2.3635 H   0  0  0  0  0  0  0  0  0  0  0  0
   -0.5063   -3.5169   -0.4375 H   0  0  0  0  0  0  0  0  0  0  0  0
    1.6094   -4.7010   -0.8551 H   0  0  0  0  0  0  0  0  0  0  0  0
    3.7945   -3.4840   -0.7070 H   0  0  0  0  0  0  0  0  0  0  0  0
    5.3583    1.4606    0.3469 H   0  0  0  0  0  0  0  0  0  0  0  0
    4.2327    3.6269    0.9166 H   0  0  0  0  0  0  0  0  0  0  0  0
    1.7705    3.7437    1.0956 H   0  0  0  0  0  0  0  0  0  0  0  0
    0.3728    1.7408    0.7189 H   0  0  0  0  0  0  0  0  0  0  0  0
   -1.3516   -0.6235   -1.8659 H   0  0  0  0  0  0  0  0  0  0  0  0
   -3.4354    0.5378   -2.6236 H   0  0  0  0  0  0  0  0  0  0  0  0
  1  2  2  0
  2  3  1  0
  3  4  2  0
  4  5  1  0
  5  6  2  0
  6  7  1  0
  7  8  1  0
  8  9  2  0
  9 10  1  0
 10 11  2  0
 11 12  1  0
 12 13  1  0
 13 14  1  0
 14 15  2  0
 15 16  1  0
 16 17  2  0
 17 18  1  0
 18 19  2  0
 19 20  1  0
  7 21  2  0
 21 22  1  0
 22 23  2  0
 23  1  1  0
 22  4  1  0
 20  8  1  0
 20 12  2  0
 19 14  1  0
  1 24  1  0
  2 25  1  0
  6 26  1  0
  9 27  1  0
 10 28  1  0
 11 29  1  0
 15 30  1  0
 16 31  1  0
 17 32  1  0
 18 33  1  0
 21 34  1  0
 23 35  1  0
M  END
