
     RDKit          3D

 34 38  0  0  0  0  0  0  0  0999 V2000
    5.5011   -0.8096   -1.4500 C   0  0  0  0  0  0  0  0  0  0  0  0
    5.5599   -1.7216   -0.4163 C   0  0  0  0  0  0  0  0  0  0  0  0
    4.5851   -1.8814    0.5054 N   0  0  0  0  0  0  0  0  0  0  0  0
    3.4936   -1.1185    0.4311 C   0  0  0  0  0  0  0  0  0  0  0  0
    2.5411   -1.2861    1.3494 N   0  0  0  0  0  0  0  0  0  0  0  0
    1.4283   -0.5174    1.2887 C   0  0  0  0  0  0  0  0  0  0  0  0
    1.1765    0.4391    0.3137 C   0  0  0  0  0  0  0  0  0  0  0  0
   -0.0598    1.2086    0.2875 C   0  0  0  0  0  0  0  0  0  0  0  0
   -0.1045    2.5973    0.4184 C   0  0  0  0  0  0  0  0  0  0  0  0
   -1.2247    3.3559    0.3991 N   0  0  0  0  0  0  0  0  0  0  0  0
   -2.4232    2.7453    0.2427 C   0  0  0  0  0  0  0  0  0  0  0  0
   -2.5023    1.3548    0.0949 C   0  0  0  0  0  0  0  0  0  0  0  0
   -1.3192    0.6119    0.1181 C   0  0  0  0  0  0  0  0  0  0  0  0
   -1.6743   -0.7078   -0.0675 N   0  0  0  0  0  0  0  0  0  0  0  0
   -3.0364   -0.8397   -0.1868 C   0  0  0  0  0  0  0  0  0  0  0  0
   -3.8231   -1.9740   -0.3747 C   0  0  0  0  0  0  0  0  0  0  0  0
   -5.1861   -1.7335   -0.4570 C   0  0  0  0  0  0  0  0  0  0  0  0
   -5.7639   -0.5154   -0.3704 N   0  0  0  0  0  0  0  0  0  0  0  0
   -4.9760    0.5730   -0.1879 C   0  0  0  0  0  0  0  0  0  0  0  0
   -3.5849    0.4379   -0.0901 C   0  0  0  0  0  0  0  0  0  0  0  0
    2.1765    0.6148   -0.6417 C   0  0  0  0  0  0  0  0  0  0  0  0
    3.3459   -0.1622   -0.5925 C   0  0  0  0  0  0  0  0  0  0  0  0
    4.3694   -0.0143   -1.5398 C   0  0  0  0  0  0  0  0  0  0  0  0
    6.3125   -0.7220   -2.1635 H   0  0  0  0  0  0  0  0  0  0  0  0
    6.4201   -2.3739   -0.2917 H   0  0  0  0  0  0  0  0  0  0  0  0
    0.7159   -0.7056    2.0898 H   0  0  0  0  0  0  0  0  0  0  0  0
    0.8118    3.1682    0.5583 H   0  0  0  0  0  0  0  0  0  0  0  0
   -3.2937    3.3920    0.2362 H   0  0  0  0  0  0  0  0  0  0  0  0
   -1.0200   -1.4771   -0.1139 H   0  0  0  0  0  0  0  0  0  0  0  0
   -3.4115   -2.9719   -0.4515 H   0  0  0  0  0  0  0  0  0  0  0  0
   -5.8816   -2.5566   -0.6025 H   0  0  0  0  0  0  0  0  0  0  0  0
   -5.4856    1.5277   -0.1247 H   0  0  0  0  0  0  0  0  0  0  0  0
    2.0451    1.3475   -1.4358 H   0  0  0  0  0  0  0  0  0  0  0  0
    4.2880    0.7144   -2.3421 H   0  0  0  0  0  0  0  0  0  0  0  0
  1  2  2  0
  2  3  1  0
  3  4  2  0
  4  5  1  0
  5  6  2  0
  6  7  1  0
  7  8  1  0
  8  9  2  0
  9 10  1  0
 10 11  2  0
 11 12  1  0
 12 13  2  0
 13 14  1  0
 14 15  1  0
 15 16  2  0
 16 17  1  0
 17 18  2  0
 18 19  1  0
 19 20  2  0
  7 21  2  0
 21 22  1  0
 22 23  2  0
 23  1  1  0
 22  4  1  0
 13  8  1  0
 20 15  1  0
 20 12  1  0
  1 24  1  0
  2 25  1  0
  6 26  1  0
  9 27  1  0
 11 28  1  0
 14 29  1  0
 16 30  1  0
 17 31  1  0
 19 32  1  0
 21 33  1  0
 23 34  1  0
M  END
