
     RDKit          3D

 39 45  0  0  0  0  0  0  0  0999 V2000
   -6.9464   -0.5518    0.7900 Si  0  0  0  0  0  4  0  0  0  0  0  0
   -6.4474   -0.0380   -0.9450 C   0  0  0  0  0  0  0  0  0  0  0  0
   -5.1076    0.0586   -1.0469 C   0  0  0  0  0  0  0  0  0  0  0  0
   -4.3910    0.4393   -2.2696 C   0  0  0  0  0  0  0  0  0  0  0  0
   -3.0410    0.5135   -2.2900 C   0  0  0  0  0  0  0  0  0  0  0  0
   -2.3667    0.2060   -1.0760 C   0  0  0  0  0  0  0  0  0  0  0  0
   -0.9976    0.2412   -0.9538 N   0  0  0  0  0  0  0  0  0  0  0  0
   -0.7785   -0.1090    0.3303 C   0  0  0  0  0  0  0  0  0  0  0  0
    0.3807   -0.2390    1.0021 C   0  0  0  0  0  0  0  0  0  0  0  0
    1.6028   -0.0350    0.4985 O   0  0  0  0  0  0  0  0  0  0  0  0
    2.4342   -0.2980    1.5842 C   0  0  0  0  0  0  0  0  0  0  0  0
    1.6891   -0.6548    2.7171 C   0  0  0  0  0  0  0  0  0  0  0  0
    0.3443   -0.6058    2.2989 C   0  0  0  0  0  0  0  0  0  0  0  0
   -1.3423   -0.7860    2.6338 S   0  0  0  0  0  0  0  0  0  0  0  0
   -1.9103   -0.3697    1.0518 C   0  0  0  0  0  0  0  0  0  0  0  0
   -2.9590   -0.1650    0.1352 C   0  0  0  0  0  0  0  0  0  0  0  0
   -4.3711   -0.2589    0.2137 C   0  0  0  0  0  0  0  0  0  0  0  0
   -5.1399   -0.5937    1.2645 C   0  0  0  0  0  0  0  0  0  0  0  0
    3.8691   -0.1899    1.4611 C   0  0  0  0  0  0  0  0  0  0  0  0
    4.9455   -0.5047    2.7842 S   0  0  0  0  0  0  0  0  0  0  0  0
    6.3599   -0.1715    1.8531 C   0  0  0  0  0  0  0  0  0  0  0  0
    6.0223    0.1692    0.5725 C   0  0  0  0  0  0  0  0  0  0  0  0
    6.8454    0.5233   -0.5428 C   0  0  0  0  0  0  0  0  0  0  0  0
    6.1704    0.8060   -1.6782 C   0  0  0  0  0  0  0  0  0  0  0  0
    4.2778    0.6370   -1.4222 Si  0  0  0  0  0  4  0  0  0  0  0  0
    4.6155    0.1537    0.3691 C   0  0  0  0  0  0  0  0  0  0  0  0
   -7.6971    0.5156    1.4943 H   0  0  0  0  0  0  0  0  0  0  0  0
   -7.5748   -1.8947    0.8158 H   0  0  0  0  0  0  0  0  0  0  0  0
   -7.1815    0.1411   -1.7137 H   0  0  0  0  0  0  0  0  0  0  0  0
   -4.9705    0.6604   -3.1595 H   0  0  0  0  0  0  0  0  0  0  0  0
   -2.5014    0.7936   -3.1875 H   0  0  0  0  0  0  0  0  0  0  0  0
   -0.2868    0.4700   -1.6378 H   0  0  0  0  0  0  0  0  0  0  0  0
    2.0692   -0.9105    3.6950 H   0  0  0  0  0  0  0  0  0  0  0  0
   -4.8127   -0.8566    2.2573 H   0  0  0  0  0  0  0  0  0  0  0  0
    7.3398   -0.2470    2.3031 H   0  0  0  0  0  0  0  0  0  0  0  0
    7.9264    0.5589   -0.4713 H   0  0  0  0  0  0  0  0  0  0  0  0
    6.5754    1.0942   -2.6347 H   0  0  0  0  0  0  0  0  0  0  0  0
    3.7399   -0.4568   -2.2700 H   0  0  0  0  0  0  0  0  0  0  0  0
    3.6158    1.9547   -1.5959 H   0  0  0  0  0  0  0  0  0  0  0  0
  1  2  1  0
  2  3  2  0
  3  4  1  0
  4  5  2  0
  5  6  1  0
  6  7  1  0
  7  8  1  0
  8  9  1  0
  9 10  1  0
 10 11  1  0
 11 12  2  0
 12 13  1  0
 13 14  1  0
 14 15  1  0
 15 16  1  0
 16 17  1  0
 17 18  2  0
 11 19  1  0
 19 20  1  0
 20 21  1  0
 21 22  2  0
 22 23  1  0
 23 24  2  0
 24 25  1  0
 25 26  1  0
 18  1  1  0
 26 19  2  0
 17  3  1  0
 26 22  1  0
 16  6  2  0
 15  8  2  0
 13  9  2  0
  1 27  1  0
  1 28  1  0
  2 29  1  0
  4 30  1  0
  5 31  1  0
  7 32  1  0
 12 33  1  0
 18 34  1  0
 21 35  1  0
 23 36  1  0
 24 37  1  0
 25 38  1  0
 25 39  1  0
M  END
