
     RDKit          3D

 28 31  0  0  0  0  0  0  0  0999 V2000
   -5.1862    1.4034   -0.7603 C   0  0  0  0  0  0  0  0  0  0  0  0
   -5.6003    0.5571    0.2473 C   0  0  0  0  0  0  0  0  0  0  0  0
   -4.7643   -0.2162    0.9734 N   0  0  0  0  0  0  0  0  0  0  0  0
   -3.4557   -0.1736    0.7163 C   0  0  0  0  0  0  0  0  0  0  0  0
   -2.6425   -0.9412    1.4397 N   0  0  0  0  0  0  0  0  0  0  0  0
   -1.3083   -0.9063    1.1871 C   0  0  0  0  0  0  0  0  0  0  0  0
   -0.6966   -0.1219    0.2167 C   0  0  0  0  0  0  0  0  0  0  0  0
    0.7641   -0.1821    0.0496 C   0  0  0  0  0  0  0  0  0  0  0  0
    1.5469   -0.9515    0.7798 N   0  0  0  0  0  0  0  0  0  0  0  0
    2.8708   -0.8038    0.4034 C   0  0  0  0  0  0  0  0  0  0  0  0
    3.9725   -1.4739    0.9722 C   0  0  0  0  0  0  0  0  0  0  0  0
    5.2618   -1.2259    0.4897 C   0  0  0  0  0  0  0  0  0  0  0  0
    5.4634   -0.3216   -0.5482 C   0  0  0  0  0  0  0  0  0  0  0  0
    4.3862    0.3555   -1.1287 C   0  0  0  0  0  0  0  0  0  0  0  0
    3.0963    0.0978   -0.6354 C   0  0  0  0  0  0  0  0  0  0  0  0
    1.5906    0.7608   -1.1315 S   0  0  0  0  0  0  0  0  0  0  0  0
   -1.5551    0.6793   -0.5368 C   0  0  0  0  0  0  0  0  0  0  0  0
   -2.9415    0.6612   -0.2945 C   0  0  0  0  0  0  0  0  0  0  0  0
   -3.8287    1.4557   -1.0360 C   0  0  0  0  0  0  0  0  0  0  0  0
   -5.8999    2.0034   -1.3132 H   0  0  0  0  0  0  0  0  0  0  0  0
   -6.6507    0.4705    0.5120 H   0  0  0  0  0  0  0  0  0  0  0  0
   -0.7224   -1.5654    1.8263 H   0  0  0  0  0  0  0  0  0  0  0  0
    3.8106   -2.1787    1.7819 H   0  0  0  0  0  0  0  0  0  0  0  0
    6.1095   -1.7449    0.9311 H   0  0  0  0  0  0  0  0  0  0  0  0
    6.4717   -0.1379   -0.9142 H   0  0  0  0  0  0  0  0  0  0  0  0
    4.5454    1.0608   -1.9386 H   0  0  0  0  0  0  0  0  0  0  0  0
   -1.1704    1.3275   -1.3194 H   0  0  0  0  0  0  0  0  0  0  0  0
   -3.4673    2.1117   -1.8235 H   0  0  0  0  0  0  0  0  0  0  0  0
  1  2  2  0
  2  3  1  0
  3  4  2  0
  4  5  1  0
  5  6  2  0
  6  7  1  0
  7  8  1  0
  8  9  2  0
  9 10  1  0
 10 11  2  0
 11 12  1  0
 12 13  2  0
 13 14  1  0
 14 15  2  0
 15 16  1  0
  7 17  2  0
 17 18  1  0
 18 19  2  0
 19  1  1  0
 18  4  1  0
 16  8  1  0
 15 10  1  0
  1 20  1  0
  2 21  1  0
  6 22  1  0
 11 23  1  0
 12 24  1  0
 13 25  1  0
 14 26  1  0
 17 27  1  0
 19 28  1  0
M  END
