
     RDKit          3D

 30 34  0  0  0  0  0  0  0  0999 V2000
    5.6601    0.8015   -0.5740 C   0  0  0  0  0  0  0  0  0  0  0  0
    6.0559   -0.2971    0.1602 C   0  0  0  0  0  0  0  0  0  0  0  0
    5.1986   -1.1483    0.7633 N   0  0  0  0  0  0  0  0  0  0  0  0
    3.8864   -0.9325    0.6554 C   0  0  0  0  0  0  0  0  0  0  0  0
    3.0533   -1.7804    1.2555 N   0  0  0  0  0  0  0  0  0  0  0  0
    1.7157   -1.5726    1.1538 C   0  0  0  0  0  0  0  0  0  0  0  0
    1.1252   -0.5245    0.4596 C   0  0  0  0  0  0  0  0  0  0  0  0
   -0.3329   -0.4008    0.4185 C   0  0  0  0  0  0  0  0  0  0  0  0
   -1.1859   -1.2289    1.0057 N   0  0  0  0  0  0  0  0  0  0  0  0
   -2.4330   -0.7499    0.7172 C   0  0  0  0  0  0  0  0  0  0  0  0
   -3.6272   -1.2620    1.1000 N   0  0  0  0  0  0  0  0  0  0  0  0
   -4.7024   -0.5649    0.6584 C   0  0  0  0  0  0  0  0  0  0  0  0
   -6.0252   -0.8359    0.8812 N   0  0  0  0  0  0  0  0  0  0  0  0
   -6.6748    0.1215    0.2503 C   0  0  0  0  0  0  0  0  0  0  0  0
   -5.8268    1.0009   -0.3716 N   0  0  0  0  0  0  0  0  0  0  0  0
   -4.5562    0.5791   -0.1226 C   0  0  0  0  0  0  0  0  0  0  0  0
   -3.3878    1.1217   -0.5254 N   0  0  0  0  0  0  0  0  0  0  0  0
   -2.3493    0.3954   -0.0628 C   0  0  0  0  0  0  0  0  0  0  0  0
   -1.0168    0.6020   -0.2422 N   0  0  0  0  0  0  0  0  0  0  0  0
    1.9988    0.3614   -0.1676 C   0  0  0  0  0  0  0  0  0  0  0  0
    3.3896    0.1651   -0.0752 C   0  0  0  0  0  0  0  0  0  0  0  0
    4.2991    1.0366   -0.6935 C   0  0  0  0  0  0  0  0  0  0  0  0
    6.3911    1.4537   -1.0383 H   0  0  0  0  0  0  0  0  0  0  0  0
    7.1077   -0.5364    0.2917 H   0  0  0  0  0  0  0  0  0  0  0  0
    1.1090   -2.3127    1.6741 H   0  0  0  0  0  0  0  0  0  0  0  0
   -7.7510    0.2301    0.2082 H   0  0  0  0  0  0  0  0  0  0  0  0
   -6.0833    1.8115   -0.9144 H   0  0  0  0  0  0  0  0  0  0  0  0
   -0.6199    1.3622   -0.7700 H   0  0  0  0  0  0  0  0  0  0  0  0
    1.6278    1.2102   -0.7329 H   0  0  0  0  0  0  0  0  0  0  0  0
    3.9543    1.8938   -1.2654 H   0  0  0  0  0  0  0  0  0  0  0  0
  1  2  2  0
  2  3  1  0
  3  4  2  0
  4  5  1  0
  5  6  2  0
  6  7  1  0
  7  8  1  0
  8  9  2  0
  9 10  1  0
 10 11  2  0
 11 12  1  0
 12 13  1  0
 13 14  2  0
 14 15  1  0
 15 16  1  0
 16 17  1  0
 17 18  2  0
 18 19  1  0
  7 20  2  0
 20 21  1  0
 21 22  2  0
 22  1  1  0
 21  4  1  0
 19  8  1  0
 18 10  1  0
 16 12  2  0
  1 23  1  0
  2 24  1  0
  6 25  1  0
 14 26  1  0
 15 27  1  0
 19 28  1  0
 20 29  1  0
 22 30  1  0
M  END
