
     RDKit          3D

 37 41  0  0  0  0  0  0  0  0999 V2000
    6.2627   -0.3128    1.5118 C   0  0  0  0  0  0  0  0  0  0  0  0
    7.1761   -0.5532    0.5010 C   0  0  0  0  0  0  0  0  0  0  0  0
    6.8728   -0.7265   -0.8002 N   0  0  0  0  0  0  0  0  0  0  0  0
    5.5533   -0.6480   -1.0763 C   0  0  0  0  0  0  0  0  0  0  0  0
    4.9910   -0.8445   -2.6690 S   0  0  0  0  0  0  0  0  0  0  0  0
    3.3764   -0.6214   -2.1853 C   0  0  0  0  0  0  0  0  0  0  0  0
    2.3770   -0.6727   -3.0897 N   0  0  0  0  0  0  0  0  0  0  0  0
    1.1470   -0.4774   -2.5626 C   0  0  0  0  0  0  0  0  0  0  0  0
    0.8462   -0.2405   -1.2223 C   0  0  0  0  0  0  0  0  0  0  0  0
   -0.5347   -0.0448   -0.7607 C   0  0  0  0  0  0  0  0  0  0  0  0
   -1.5385   -0.9749   -1.0594 C   0  0  0  0  0  0  0  0  0  0  0  0
   -2.8548   -0.7831   -0.6189 C   0  0  0  0  0  0  0  0  0  0  0  0
   -3.2244    0.3406    0.1406 C   0  0  0  0  0  0  0  0  0  0  0  0
   -4.6188    0.5171    0.5946 C   0  0  0  0  0  0  0  0  0  0  0  0
   -4.9766    1.2161    1.7486 C   0  0  0  0  0  0  0  0  0  0  0  0
   -6.2596    1.3814    2.1633 N   0  0  0  0  0  0  0  0  0  0  0  0
   -7.1937    0.8098    1.3753 C   0  0  0  0  0  0  0  0  0  0  0  0
   -6.8621    0.1051    0.2332 C   0  0  0  0  0  0  0  0  0  0  0  0
   -5.5821   -0.0579   -0.1760 N   0  0  0  0  0  0  0  0  0  0  0  0
   -2.2138    1.2734    0.4288 C   0  0  0  0  0  0  0  0  0  0  0  0
   -0.8952    1.0830   -0.0102 C   0  0  0  0  0  0  0  0  0  0  0  0
    1.9301   -0.1981   -0.3345 C   0  0  0  0  0  0  0  0  0  0  0  0
    3.2447   -0.3944   -0.8198 C   0  0  0  0  0  0  0  0  0  0  0  0
    4.5286   -0.4119   -0.1641 C   0  0  0  0  0  0  0  0  0  0  0  0
    4.9107   -0.2385    1.1852 C   0  0  0  0  0  0  0  0  0  0  0  0
    6.5955   -0.1856    2.5364 H   0  0  0  0  0  0  0  0  0  0  0  0
    8.2383   -0.6163    0.7276 H   0  0  0  0  0  0  0  0  0  0  0  0
    0.3497   -0.5097   -3.3046 H   0  0  0  0  0  0  0  0  0  0  0  0
   -1.3096   -1.8717   -1.6328 H   0  0  0  0  0  0  0  0  0  0  0  0
   -3.6035   -1.5329   -0.8745 H   0  0  0  0  0  0  0  0  0  0  0  0
   -4.2349    1.6637    2.4008 H   0  0  0  0  0  0  0  0  0  0  0  0
   -8.2240    0.9318    1.6889 H   0  0  0  0  0  0  0  0  0  0  0  0
   -7.6213   -0.3520   -0.3911 H   0  0  0  0  0  0  0  0  0  0  0  0
   -2.4359    2.1834    0.9823 H   0  0  0  0  0  0  0  0  0  0  0  0
   -0.1527    1.8436    0.2261 H   0  0  0  0  0  0  0  0  0  0  0  0
    1.7670   -0.0291    0.7265 H   0  0  0  0  0  0  0  0  0  0  0  0
    4.1691   -0.0517    1.9561 H   0  0  0  0  0  0  0  0  0  0  0  0
  1  2  2  0
  2  3  1  0
  3  4  2  0
  4  5  1  0
  5  6  1  0
  6  7  2  0
  7  8  1  0
  8  9  2  0
  9 10  1  0
 10 11  2  0
 11 12  1  0
 12 13  2  0
 13 14  1  0
 14 15  2  0
 15 16  1  0
 16 17  2  0
 17 18  1  0
 18 19  2  0
 13 20  1  0
 20 21  2  0
  9 22  1  0
 22 23  2  0
 23 24  1  0
 24 25  2  0
 25  1  1  0
 24  4  1  0
 23  6  1  0
 21 10  1  0
 19 14  1  0
  1 26  1  0
  2 27  1  0
  8 28  1  0
 11 29  1  0
 12 30  1  0
 15 31  1  0
 17 32  1  0
 18 33  1  0
 20 34  1  0
 21 35  1  0
 22 36  1  0
 25 37  1  0
M  END
