
     RDKit          3D

 25 28  0  0  0  0  0  0  0  0999 V2000
   -4.0369    1.1398    0.4194 C   0  0  0  0  0  0  0  0  0  0  0  0
   -4.7365    0.0369   -0.0368 C   0  0  0  0  0  0  0  0  0  0  0  0
   -4.1833   -1.1031   -0.4939 N   0  0  0  0  0  0  0  0  0  0  0  0
   -2.8334   -1.1082   -0.4805 C   0  0  0  0  0  0  0  0  0  0  0  0
   -1.9698   -2.4692   -1.0222 S   0  0  0  0  0  0  0  0  0  0  0  0
   -0.4786   -1.7198   -0.7000 C   0  0  0  0  0  0  0  0  0  0  0  0
    0.6802   -2.3658   -0.9447 N   0  0  0  0  0  0  0  0  0  0  0  0
    1.7869   -1.6511   -0.6423 C   0  0  0  0  0  0  0  0  0  0  0  0
    1.8144   -0.3608   -0.1221 C   0  0  0  0  0  0  0  0  0  0  0  0
    3.0721    0.2984    0.1689 C   0  0  0  0  0  0  0  0  0  0  0  0
    4.3509   -0.2222    0.4757 C   0  0  0  0  0  0  0  0  0  0  0  0
    5.2587    0.7376    0.6678 N   0  0  0  0  0  0  0  0  0  0  0  0
    4.5756    1.9269    0.4809 O   0  0  0  0  0  0  0  0  0  0  0  0
    3.2795    1.6584    0.1832 C   0  0  0  0  0  0  0  0  0  0  0  0
    0.5824    0.2603    0.1134 C   0  0  0  0  0  0  0  0  0  0  0  0
   -0.6148   -0.4358   -0.1835 C   0  0  0  0  0  0  0  0  0  0  0  0
   -2.0049   -0.0748   -0.0516 C   0  0  0  0  0  0  0  0  0  0  0  0
   -2.6446    1.0949    0.4167 C   0  0  0  0  0  0  0  0  0  0  0  0
   -4.5649    2.0197    0.7715 H   0  0  0  0  0  0  0  0  0  0  0  0
   -5.8244    0.0447   -0.0457 H   0  0  0  0  0  0  0  0  0  0  0  0
    2.7096   -2.1872   -0.8577 H   0  0  0  0  0  0  0  0  0  0  0  0
    4.6645   -1.2522    0.5746 H   0  0  0  0  0  0  0  0  0  0  0  0
    2.6625    2.5272    0.0071 H   0  0  0  0  0  0  0  0  0  0  0  0
    0.5235    1.2600    0.5327 H   0  0  0  0  0  0  0  0  0  0  0  0
   -2.0686    1.9452    0.7692 H   0  0  0  0  0  0  0  0  0  0  0  0
  1  2  2  0
  2  3  1  0
  3  4  2  0
  4  5  1  0
  5  6  1  0
  6  7  2  0
  7  8  1  0
  8  9  2  0
  9 10  1  0
 10 11  1  0
 11 12  2  0
 12 13  1  0
 13 14  1  0
  9 15  1  0
 15 16  2  0
 16 17  1  0
 17 18  2  0
 18  1  1  0
 17  4  1  0
 16  6  1  0
 14 10  2  0
  1 19  1  0
  2 20  1  0
  8 21  1  0
 11 22  1  0
 14 23  1  0
 15 24  1  0
 18 25  1  0
M  END
