
     RDKit          3D

 41 47  0  0  0  0  0  0  0  0999 V2000
   -1.4926   -0.9431    0.9678 Si  0  0  0  0  0  4  0  0  0  0  0  0
   -2.4621    0.1804   -0.1913 C   0  0  0  0  0  0  0  0  0  0  0  0
   -1.6259    0.8858   -0.9866 C   0  0  0  0  0  0  0  0  0  0  0  0
   -0.1737    0.6345   -0.7850 C   0  0  0  0  0  0  0  0  0  0  0  0
    0.0811   -0.3176    0.2239 C   0  0  0  0  0  0  0  0  0  0  0  0
    1.3865   -0.6943    0.5671 C   0  0  0  0  0  0  0  0  0  0  0  0
    1.8777   -1.8310    1.7631 S   0  0  0  0  0  0  0  0  0  0  0  0
    3.5332   -1.6051    1.4441 C   0  0  0  0  0  0  0  0  0  0  0  0
    4.6231   -2.2335    2.0673 C   0  0  0  0  0  0  0  0  0  0  0  0
    5.8959   -1.8867    1.6365 C   0  0  0  0  0  0  0  0  0  0  0  0
    6.0176   -0.9525    0.6290 C   0  0  0  0  0  0  0  0  0  0  0  0
    4.9926   -0.3359    0.0153 N   0  0  0  0  0  0  0  0  0  0  0  0
    3.7336   -0.6696    0.4316 C   0  0  0  0  0  0  0  0  0  0  0  0
    2.4855   -0.1234   -0.0962 C   0  0  0  0  0  0  0  0  0  0  0  0
    2.2184    0.8568   -1.1349 C   0  0  0  0  0  0  0  0  0  0  0  0
    3.2876    1.4643   -1.8362 C   0  0  0  0  0  0  0  0  0  0  0  0
    3.0672    2.4092   -2.8391 C   0  0  0  0  0  0  0  0  0  0  0  0
    1.7725    2.7742   -3.1702 C   0  0  0  0  0  0  0  0  0  0  0  0
    0.6967    2.1942   -2.4981 C   0  0  0  0  0  0  0  0  0  0  0  0
    0.8868    1.2335   -1.4768 C   0  0  0  0  0  0  0  0  0  0  0  0
   -3.8870    0.2557   -0.2053 C   0  0  0  0  0  0  0  0  0  0  0  0
   -4.7398    1.3364   -1.3259 S   0  0  0  0  0  0  0  0  0  0  0  0
   -6.3128    0.8983   -0.7816 C   0  0  0  0  0  0  0  0  0  0  0  0
   -6.1629   -0.0133    0.1903 C   0  0  0  0  0  0  0  0  0  0  0  0
   -7.1745   -0.6094    0.8780 O   0  0  0  0  0  0  0  0  0  0  0  0
   -6.4379   -1.4208    1.7149 C   0  0  0  0  0  0  0  0  0  0  0  0
   -5.0529   -1.3166    1.5380 C   0  0  0  0  0  0  0  0  0  0  0  0
   -4.8711   -0.3653    0.5077 C   0  0  0  0  0  0  0  0  0  0  0  0
   -1.7437   -2.3825    0.6954 H   0  0  0  0  0  0  0  0  0  0  0  0
   -1.6645   -0.5617    2.3940 H   0  0  0  0  0  0  0  0  0  0  0  0
   -1.9506    1.5963   -1.7331 H   0  0  0  0  0  0  0  0  0  0  0  0
    4.4762   -2.9634    2.8568 H   0  0  0  0  0  0  0  0  0  0  0  0
    6.7761   -2.3388    2.0805 H   0  0  0  0  0  0  0  0  0  0  0  0
    7.0017   -0.6601    0.2699 H   0  0  0  0  0  0  0  0  0  0  0  0
    4.3203    1.2120   -1.6137 H   0  0  0  0  0  0  0  0  0  0  0  0
    3.9120    2.8554   -3.3571 H   0  0  0  0  0  0  0  0  0  0  0  0
    1.5949    3.5094   -3.9505 H   0  0  0  0  0  0  0  0  0  0  0  0
   -0.3008    2.5102   -2.7906 H   0  0  0  0  0  0  0  0  0  0  0  0
   -7.2280    1.3100   -1.1807 H   0  0  0  0  0  0  0  0  0  0  0  0
   -7.0391   -2.0199    2.3865 H   0  0  0  0  0  0  0  0  0  0  0  0
   -4.3174   -1.8720    2.1000 H   0  0  0  0  0  0  0  0  0  0  0  0
  1  2  1  0
  2  3  2  0
  3  4  1  0
  4  5  2  0
  5  6  1  0
  6  7  1  0
  7  8  1  0
  8  9  2  0
  9 10  1  0
 10 11  2  0
 11 12  1  0
 12 13  2  0
 13 14  1  0
 14 15  1  0
 15 16  2  0
 16 17  1  0
 17 18  2  0
 18 19  1  0
 19 20  2  0
  2 21  1  0
 21 22  1  0
 22 23  1  0
 23 24  2  0
 24 25  1  0
 25 26  1  0
 26 27  2  0
 27 28  1  0
  5  1  1  0
 14  6  2  0
 20 15  1  0
 28 21  2  0
 20  4  1  0
 28 24  1  0
 13  8  1  0
  1 29  1  0
  1 30  1  0
  3 31  1  0
  9 32  1  0
 10 33  1  0
 11 34  1  0
 16 35  1  0
 17 36  1  0
 18 37  1  0
 19 38  1  0
 23 39  1  0
 26 40  1  0
 27 41  1  0
M  END
