
     RDKit          3D

 25 28  0  0  0  0  0  0  0  0999 V2000
    3.7014    1.6030    1.3476 C   0  0  0  0  0  0  0  0  0  0  0  0
    4.6374    1.1169    0.4522 C   0  0  0  0  0  0  0  0  0  0  0  0
    4.3715    0.3141   -0.5968 N   0  0  0  0  0  0  0  0  0  0  0  0
    3.0666   -0.0063   -0.7309 C   0  0  0  0  0  0  0  0  0  0  0  0
    2.5500   -1.0121   -2.0014 S   0  0  0  0  0  0  0  0  0  0  0  0
    0.9314   -0.9200   -1.4896 C   0  0  0  0  0  0  0  0  0  0  0  0
   -0.0393   -1.5723   -2.1627 N   0  0  0  0  0  0  0  0  0  0  0  0
   -1.2788   -1.4086   -1.6417 C   0  0  0  0  0  0  0  0  0  0  0  0
   -1.6092   -0.6556   -0.5202 C   0  0  0  0  0  0  0  0  0  0  0  0
   -2.9725   -0.5237   -0.0139 C   0  0  0  0  0  0  0  0  0  0  0  0
   -4.0925   -1.1164   -0.5691 C   0  0  0  0  0  0  0  0  0  0  0  0
   -5.4963   -0.7061    0.3326 S   0  0  0  0  0  0  0  0  0  0  0  0
   -4.5196    0.2228    1.3874 C   0  0  0  0  0  0  0  0  0  0  0  0
   -3.2343    0.2461    1.1147 N   0  0  0  0  0  0  0  0  0  0  0  0
   -0.5565   -0.0029    0.1340 C   0  0  0  0  0  0  0  0  0  0  0  0
    0.7637   -0.1313   -0.3573 C   0  0  0  0  0  0  0  0  0  0  0  0
    2.0228    0.4083    0.0913 C   0  0  0  0  0  0  0  0  0  0  0  0
    2.3657    1.2487    1.1741 C   0  0  0  0  0  0  0  0  0  0  0  0
    4.0041    2.2463    2.1670 H   0  0  0  0  0  0  0  0  0  0  0  0
    5.6877    1.3778    0.5644 H   0  0  0  0  0  0  0  0  0  0  0  0
   -2.0376   -1.9454   -2.2053 H   0  0  0  0  0  0  0  0  0  0  0  0
   -4.1823   -1.7563   -1.4342 H   0  0  0  0  0  0  0  0  0  0  0  0
   -4.9421    0.7575    2.2283 H   0  0  0  0  0  0  0  0  0  0  0  0
   -0.7473    0.6021    1.0173 H   0  0  0  0  0  0  0  0  0  0  0  0
    1.6061    1.6133    1.8594 H   0  0  0  0  0  0  0  0  0  0  0  0
  1  2  2  0
  2  3  1  0
  3  4  2  0
  4  5  1  0
  5  6  1  0
  6  7  2  0
  7  8  1  0
  8  9  2  0
  9 10  1  0
 10 11  2  0
 11 12  1  0
 12 13  1  0
 13 14  2  0
  9 15  1  0
 15 16  2  0
 16 17  1  0
 17 18  2  0
 18  1  1  0
 17  4  1  0
 16  6  1  0
 14 10  1  0
  1 19  1  0
  2 20  1  0
  8 21  1  0
 11 22  1  0
 13 23  1  0
 15 24  1  0
 18 25  1  0
M  END
