
     RDKit          3D

 24 27  0  0  0  0  0  0  0  0999 V2000
    3.6599    0.6065    1.6962 C   0  0  0  0  0  0  0  0  0  0  0  0
    4.5236   -0.1184    0.8947 C   0  0  0  0  0  0  0  0  0  0  0  0
    4.1661   -0.8388   -0.1862 N   0  0  0  0  0  0  0  0  0  0  0  0
    2.8437   -0.8111   -0.4573 C   0  0  0  0  0  0  0  0  0  0  0  0
    2.2164   -1.6656   -1.7870 S   0  0  0  0  0  0  0  0  0  0  0  0
    0.6336   -1.1494   -1.4429 C   0  0  0  0  0  0  0  0  0  0  0  0
   -0.3987   -1.5371   -2.2212 N   0  0  0  0  0  0  0  0  0  0  0  0
   -1.6004   -1.0513   -1.8300 C   0  0  0  0  0  0  0  0  0  0  0  0
   -1.8296   -0.2237   -0.7378 C   0  0  0  0  0  0  0  0  0  0  0  0
   -3.1645    0.2434   -0.4036 C   0  0  0  0  0  0  0  0  0  0  0  0
   -3.4059    1.0657    0.6782 N   0  0  0  0  0  0  0  0  0  0  0  0
   -4.7018    1.2377    0.6130 C   0  0  0  0  0  0  0  0  0  0  0  0
   -5.2903    0.5899   -0.4215 O   0  0  0  0  0  0  0  0  0  0  0  0
   -4.2691   -0.0732   -1.1005 N   0  0  0  0  0  0  0  0  0  0  0  0
   -0.7226    0.1470    0.0344 C   0  0  0  0  0  0  0  0  0  0  0  0
    0.5613   -0.3278   -0.3225 C   0  0  0  0  0  0  0  0  0  0  0  0
    1.8652   -0.1279    0.2594 C   0  0  0  0  0  0  0  0  0  0  0  0
    2.3028    0.6094    1.3826 C   0  0  0  0  0  0  0  0  0  0  0  0
    4.0346    1.1603    2.5505 H   0  0  0  0  0  0  0  0  0  0  0  0
    5.5885   -0.1382    1.1167 H   0  0  0  0  0  0  0  0  0  0  0  0
   -2.4233   -1.3728   -2.4676 H   0  0  0  0  0  0  0  0  0  0  0  0
   -5.3462    1.8138    1.2596 H   0  0  0  0  0  0  0  0  0  0  0  0
   -0.8425    0.7930    0.9005 H   0  0  0  0  0  0  0  0  0  0  0  0
    1.5994    1.1687    1.9923 H   0  0  0  0  0  0  0  0  0  0  0  0
  1  2  2  0
  2  3  1  0
  3  4  2  0
  4  5  1  0
  5  6  1  0
  6  7  2  0
  7  8  1  0
  8  9  2  0
  9 10  1  0
 10 11  1  0
 11 12  2  0
 12 13  1  0
 13 14  1  0
  9 15  1  0
 15 16  2  0
 16 17  1  0
 17 18  2  0
 18  1  1  0
 17  4  1  0
 16  6  1  0
 14 10  2  0
  1 19  1  0
  2 20  1  0
  8 21  1  0
 12 22  1  0
 15 23  1  0
 18 24  1  0
M  END
