
     RDKit          3D

 28 31  0  0  0  0  0  0  0  0999 V2000
    5.0570    0.4818   -0.5878 C   0  0  0  0  0  0  0  0  0  0  0  0
    5.6804   -0.3082    0.3525 C   0  0  0  0  0  0  0  0  0  0  0  0
    4.9845   -1.0285    1.2441 N   0  0  0  0  0  0  0  0  0  0  0  0
    3.6072   -0.9827    1.2262 N   0  0  0  0  0  0  0  0  0  0  0  0
    2.9351   -0.2235    0.3246 C   0  0  0  0  0  0  0  0  0  0  0  0
    1.4488   -0.2542    0.4022 C   0  0  0  0  0  0  0  0  0  0  0  0
    0.6229    0.4760   -0.4599 C   0  0  0  0  0  0  0  0  0  0  0  0
   -0.7571    0.3498   -0.2694 C   0  0  0  0  0  0  0  0  0  0  0  0
   -1.8100    0.9271   -0.9402 N   0  0  0  0  0  0  0  0  0  0  0  0
   -3.0100    0.5164   -0.4099 C   0  0  0  0  0  0  0  0  0  0  0  0
   -4.3173    0.8403   -0.7668 C   0  0  0  0  0  0  0  0  0  0  0  0
   -5.3005    0.2312   -0.0020 C   0  0  0  0  0  0  0  0  0  0  0  0
   -5.0697   -0.6192    1.0220 N   0  0  0  0  0  0  0  0  0  0  0  0
   -3.7883   -0.9189    1.3502 C   0  0  0  0  0  0  0  0  0  0  0  0
   -2.7205   -0.3561    0.6392 C   0  0  0  0  0  0  0  0  0  0  0  0
   -1.2974   -0.4594    0.7257 C   0  0  0  0  0  0  0  0  0  0  0  0
   -0.4161   -1.1599    1.5504 C   0  0  0  0  0  0  0  0  0  0  0  0
    0.9239   -1.0469    1.3769 N   0  0  0  0  0  0  0  0  0  0  0  0
    3.6630    0.5241   -0.6010 C   0  0  0  0  0  0  0  0  0  0  0  0
    5.6397    1.0560   -1.2993 H   0  0  0  0  0  0  0  0  0  0  0  0
    6.7585   -0.3885    0.4204 H   0  0  0  0  0  0  0  0  0  0  0  0
    1.0092    1.1135   -1.2428 H   0  0  0  0  0  0  0  0  0  0  0  0
   -1.7174    1.5661   -1.7168 H   0  0  0  0  0  0  0  0  0  0  0  0
   -4.5584    1.5149   -1.5775 H   0  0  0  0  0  0  0  0  0  0  0  0
   -6.3516    0.4220   -0.2046 H   0  0  0  0  0  0  0  0  0  0  0  0
   -3.6532   -1.6054    2.1783 H   0  0  0  0  0  0  0  0  0  0  0  0
   -0.7394   -1.8143    2.3520 H   0  0  0  0  0  0  0  0  0  0  0  0
    3.1766    1.1465   -1.3419 H   0  0  0  0  0  0  0  0  0  0  0  0
  1  2  2  0
  2  3  1  0
  3  4  2  0
  4  5  1  0
  5  6  1  0
  6  7  2  0
  7  8  1  0
  8  9  1  0
  9 10  1  0
 10 11  2  0
 11 12  1  0
 12 13  2  0
 13 14  1  0
 14 15  2  0
 15 16  1  0
 16 17  1  0
 17 18  2  0
  5 19  2  0
 19  1  1  0
 18  6  1  0
 16  8  2  0
 15 10  1  0
  1 20  1  0
  2 21  1  0
  7 22  1  0
  9 23  1  0
 11 24  1  0
 12 25  1  0
 14 26  1  0
 17 27  1  0
 19 28  1  0
M  END
