
     RDKit          3D

 23 25  0  0  0  0  0  0  0  0999 V2000
   -3.9468   -0.4831   -0.4951 C   0  0  0  0  0  0  0  0  0  0  0  0
   -4.4364    0.6728    0.0785 C   0  0  0  0  0  0  0  0  0  0  0  0
   -3.6277    1.6178    0.5906 N   0  0  0  0  0  0  0  0  0  0  0  0
   -2.2711    1.4361    0.5462 N   0  0  0  0  0  0  0  0  0  0  0  0
   -1.7482    0.3183   -0.0068 C   0  0  0  0  0  0  0  0  0  0  0  0
   -0.2865    0.2526    0.0118 C   0  0  0  0  0  0  0  0  0  0  0  0
    0.6322    1.1649    0.5112 C   0  0  0  0  0  0  0  0  0  0  0  0
    1.9437    0.6620    0.3008 C   0  0  0  0  0  0  0  0  0  0  0  0
    3.2325    1.1280    0.5851 C   0  0  0  0  0  0  0  0  0  0  0  0
    4.3205    0.3911    0.2471 N   0  0  0  0  0  0  0  0  0  0  0  0
    4.1365   -0.7982   -0.3676 C   0  0  0  0  0  0  0  0  0  0  0  0
    2.9038   -1.3460   -0.6917 C   0  0  0  0  0  0  0  0  0  0  0  0
    1.8041   -0.5690   -0.3337 C   0  0  0  0  0  0  0  0  0  0  0  0
    0.4562   -0.7924   -0.4961 N   0  0  0  0  0  0  0  0  0  0  0  0
   -2.5677   -0.6661   -0.5394 C   0  0  0  0  0  0  0  0  0  0  0  0
   -4.6234   -1.2272   -0.8998 H   0  0  0  0  0  0  0  0  0  0  0  0
   -5.4983    0.8786    0.1458 H   0  0  0  0  0  0  0  0  0  0  0  0
    0.3755    2.1061    0.9833 H   0  0  0  0  0  0  0  0  0  0  0  0
    3.4232    2.0751    1.0763 H   0  0  0  0  0  0  0  0  0  0  0  0
    5.0538   -1.3304   -0.6070 H   0  0  0  0  0  0  0  0  0  0  0  0
    2.8147   -2.3044   -1.1851 H   0  0  0  0  0  0  0  0  0  0  0  0
    0.0772   -1.6193   -0.9325 H   0  0  0  0  0  0  0  0  0  0  0  0
   -2.1680   -1.5673   -0.9860 H   0  0  0  0  0  0  0  0  0  0  0  0
  1  2  2  0
  2  3  1  0
  3  4  2  0
  4  5  1  0
  5  6  1  0
  6  7  2  0
  7  8  1  0
  8  9  2  0
  9 10  1  0
 10 11  2  0
 11 12  1  0
 12 13  2  0
 13 14  1  0
  5 15  2  0
 15  1  1  0
 14  6  1  0
 13  8  1  0
  1 16  1  0
  2 17  1  0
  7 18  1  0
  9 19  1  0
 11 20  1  0
 12 21  1  0
 14 22  1  0
 15 23  1  0
M  END
