
     RDKit          3D

 22 24  0  0  0  0  0  0  0  0999 V2000
   -3.7094    0.3917   -0.2518 C   0  0  0  0  0  0  0  0  0  0  0  0
   -4.0966   -0.0093    1.0077 C   0  0  0  0  0  0  0  0  0  0  0  0
   -3.2058   -0.3983    1.9332 N   0  0  0  0  0  0  0  0  0  0  0  0
   -1.8671   -0.3989    1.6217 N   0  0  0  0  0  0  0  0  0  0  0  0
   -1.4248   -0.0149    0.3988 C   0  0  0  0  0  0  0  0  0  0  0  0
    0.0464   -0.0620    0.1918 C   0  0  0  0  0  0  0  0  0  0  0  0
    0.9039   -0.4889    1.2357 C   0  0  0  0  0  0  0  0  0  0  0  0
    2.3018   -0.5594    1.1140 C   0  0  0  0  0  0  0  0  0  0  0  0
    2.8272   -0.1799   -0.1153 C   0  0  0  0  0  0  0  0  0  0  0  0
    4.0960   -0.1099   -0.6163 N   0  0  0  0  0  0  0  0  0  0  0  0
    4.1092    0.3250   -1.8873 N   0  0  0  0  0  0  0  0  0  0  0  0
    2.8499    0.5483   -2.2436 N   0  0  0  0  0  0  0  0  0  0  0  0
    2.0465    0.2468   -1.1764 C   0  0  0  0  0  0  0  0  0  0  0  0
    0.6506    0.3087   -1.0304 C   0  0  0  0  0  0  0  0  0  0  0  0
   -2.3502    0.3884   -0.5603 C   0  0  0  0  0  0  0  0  0  0  0  0
   -4.4461    0.7021   -0.9842 H   0  0  0  0  0  0  0  0  0  0  0  0
   -5.1354   -0.0311    1.3143 H   0  0  0  0  0  0  0  0  0  0  0  0
    0.4746   -0.7837    2.1956 H   0  0  0  0  0  0  0  0  0  0  0  0
    2.9228   -0.8921    1.9386 H   0  0  0  0  0  0  0  0  0  0  0  0
    4.9754   -0.3344   -0.1677 H   0  0  0  0  0  0  0  0  0  0  0  0
    0.0792    0.6478   -1.8852 H   0  0  0  0  0  0  0  0  0  0  0  0
   -2.0479    0.7042   -1.5515 H   0  0  0  0  0  0  0  0  0  0  0  0
  1  2  2  0
  2  3  1  0
  3  4  2  0
  4  5  1  0
  5  6  1  0
  6  7  2  0
  7  8  1  0
  8  9  2  0
  9 10  1  0
 10 11  1  0
 11 12  2  0
 12 13  1  0
 13 14  2  0
  5 15  2  0
 15  1  1  0
 14  6  1  0
 13  9  1  0
  1 16  1  0
  2 17  1  0
  7 18  1  0
  8 19  1  0
 10 20  1  0
 14 21  1  0
 15 22  1  0
M  END
