
     RDKit          3D

 48 55  0  0  0  0  0  0  0  0999 V2000
   -4.2778    2.1815   -3.5789 Si  0  0  0  0  0  4  0  0  0  0  0  0
   -5.6560    1.6889   -2.4202 C   0  0  0  0  0  0  0  0  0  0  0  0
   -5.1654    1.0478   -1.3435 C   0  0  0  0  0  0  0  0  0  0  0  0
   -5.9659    0.5366   -0.2622 C   0  0  0  0  0  0  0  0  0  0  0  0
   -5.3531   -0.0870    0.7576 C   0  0  0  0  0  0  0  0  0  0  0  0
   -3.8848   -0.2881    0.8484 C   0  0  0  0  0  0  0  0  0  0  0  0
   -3.0678    0.1829   -0.1613 C   0  0  0  0  0  0  0  0  0  0  0  0
   -1.6398   -0.0414   -0.0186 C   0  0  0  0  0  0  0  0  0  0  0  0
   -0.6678    0.3548   -0.9171 O   0  0  0  0  0  0  0  0  0  0  0  0
    0.5259   -0.0522   -0.3996 C   0  0  0  0  0  0  0  0  0  0  0  0
    1.8508    0.0656   -0.8566 C   0  0  0  0  0  0  0  0  0  0  0  0
    2.7034   -0.5227    0.0625 C   0  0  0  0  0  0  0  0  0  0  0  0
    1.8730   -1.2009    1.4254 S   0  0  0  0  0  0  0  0  0  0  0  0
    0.3518   -0.6869    0.7814 C   0  0  0  0  0  0  0  0  0  0  0  0
   -1.0303   -0.6896    1.0450 C   0  0  0  0  0  0  0  0  0  0  0  0
   -1.7990   -1.1988    2.1139 C   0  0  0  0  0  0  0  0  0  0  0  0
   -1.3696   -1.8466    3.2123 C   0  0  0  0  0  0  0  0  0  0  0  0
   -2.7953   -2.3056    4.3145 Si  0  0  0  0  0  4  0  0  0  0  0  0
   -3.9436   -1.5037    3.0704 C   0  0  0  0  0  0  0  0  0  0  0  0
   -3.2701   -0.9928    2.0149 C   0  0  0  0  0  0  0  0  0  0  0  0
    4.1532   -0.6264    0.0054 C   0  0  0  0  0  0  0  0  0  0  0  0
    4.8886   -1.8361    0.1016 C   0  0  0  0  0  0  0  0  0  0  0  0
    6.3242   -1.9171    0.0207 C   0  0  0  0  0  0  0  0  0  0  0  0
    7.1747   -0.8029   -0.1638 C   0  0  0  0  0  0  0  0  0  0  0  0
    6.4339    0.3683   -0.2526 C   0  0  0  0  0  0  0  0  0  0  0  0
    6.9454    1.6287   -0.4202 C   0  0  0  0  0  0  0  0  0  0  0  0
    5.8732    2.4954   -0.4382 N   0  0  0  0  0  0  0  0  0  0  0  0
    4.6914    1.7993   -0.2842 C   0  0  0  0  0  0  0  0  0  0  0  0
    5.0100    0.4662   -0.1766 C   0  0  0  0  0  0  0  0  0  0  0  0
   -3.6955    0.8763   -1.3071 C   0  0  0  0  0  0  0  0  0  0  0  0
   -3.0729    1.4021   -2.3840 C   0  0  0  0  0  0  0  0  0  0  0  0
   -4.1212    3.6532   -3.6730 H   0  0  0  0  0  0  0  0  0  0  0  0
   -4.3481    1.4630   -4.8743 H   0  0  0  0  0  0  0  0  0  0  0  0
   -6.6876    1.9142   -2.6378 H   0  0  0  0  0  0  0  0  0  0  0  0
   -7.0427    0.6593   -0.2839 H   0  0  0  0  0  0  0  0  0  0  0  0
   -5.9686   -0.4673    1.5651 H   0  0  0  0  0  0  0  0  0  0  0  0
    2.1599    0.5381   -1.7787 H   0  0  0  0  0  0  0  0  0  0  0  0
   -0.3540   -2.0945    3.4748 H   0  0  0  0  0  0  0  0  0  0  0  0
   -2.7791   -1.5802    5.6070 H   0  0  0  0  0  0  0  0  0  0  0  0
   -3.0041   -3.7705    4.4029 H   0  0  0  0  0  0  0  0  0  0  0  0
   -5.0039   -1.4972    3.2573 H   0  0  0  0  0  0  0  0  0  0  0  0
    4.3429   -2.7709    0.2361 H   0  0  0  0  0  0  0  0  0  0  0  0
    6.7811   -2.9037    0.1066 H   0  0  0  0  0  0  0  0  0  0  0  0
    8.2510   -0.8757   -0.2205 H   0  0  0  0  0  0  0  0  0  0  0  0
    7.9567    1.9982   -0.5210 H   0  0  0  0  0  0  0  0  0  0  0  0
    5.9425    3.4996   -0.5392 H   0  0  0  0  0  0  0  0  0  0  0  0
    3.7481    2.3277   -0.2595 H   0  0  0  0  0  0  0  0  0  0  0  0
   -2.0177    1.4109   -2.6005 H   0  0  0  0  0  0  0  0  0  0  0  0
  1  2  1  0
  2  3  2  0
  3  4  1  0
  4  5  2  0
  5  6  1  0
  6  7  2  0
  7  8  1  0
  8  9  1  0
  9 10  1  0
 10 11  1  0
 11 12  2  0
 12 13  1  0
 13 14  1  0
 14 15  1  0
 15 16  1  0
 16 17  2  0
 17 18  1  0
 18 19  1  0
 19 20  2  0
 12 21  1  0
 21 22  2  0
 22 23  1  0
 23 24  2  0
 24 25  1  0
 25 26  2  0
 26 27  1  0
 27 28  1  0
 28 29  2  0
  7 30  1  0
 30 31  2  0
 31  1  1  0
 30  3  1  0
 20  6  1  0
 29 21  1  0
 15  8  2  0
 20 16  1  0
 29 25  1  0
 14 10  2  0
  1 32  1  0
  1 33  1  0
  2 34  1  0
  4 35  1  0
  5 36  1  0
 11 37  1  0
 17 38  1  0
 18 39  1  0
 18 40  1  0
 19 41  1  0
 22 42  1  0
 23 43  1  0
 24 44  1  0
 26 45  1  0
 27 46  1  0
 28 47  1  0
 31 48  1  0
M  END
