
     RDKit          3D

 29 32  0  0  0  0  0  0  0  0999 V2000
   -4.9643    1.4480    0.2984 C   0  0  0  0  0  0  0  0  0  0  0  0
   -5.6996    0.3623   -0.1227 C   0  0  0  0  0  0  0  0  0  0  0  0
   -5.1173   -0.7927   -0.4794 N   0  0  0  0  0  0  0  0  0  0  0  0
   -3.7477   -0.9020   -0.4254 N   0  0  0  0  0  0  0  0  0  0  0  0
   -2.9694    0.1317   -0.0193 C   0  0  0  0  0  0  0  0  0  0  0  0
   -1.5026   -0.1170   -0.0065 C   0  0  0  0  0  0  0  0  0  0  0  0
   -0.9907   -1.3703   -0.4017 C   0  0  0  0  0  0  0  0  0  0  0  0
    0.3826   -1.6650   -0.4110 C   0  0  0  0  0  0  0  0  0  0  0  0
    1.2999   -0.6792   -0.0120 C   0  0  0  0  0  0  0  0  0  0  0  0
    0.8028    0.5634    0.3805 C   0  0  0  0  0  0  0  0  0  0  0  0
   -0.5703    0.8659    0.3925 C   0  0  0  0  0  0  0  0  0  0  0  0
    1.8870    1.3416    0.7196 N   0  0  0  0  0  0  0  0  0  0  0  0
    3.0481    0.6420    0.5574 C   0  0  0  0  0  0  0  0  0  0  0  0
    4.2741    1.1372    0.8090 N   0  0  0  0  0  0  0  0  0  0  0  0
    5.2595    0.2418    0.5680 C   0  0  0  0  0  0  0  0  0  0  0  0
    5.0809   -1.0579    0.1108 C   0  0  0  0  0  0  0  0  0  0  0  0
    3.7861   -1.5180   -0.1333 C   0  0  0  0  0  0  0  0  0  0  0  0
    2.7231   -0.6286    0.1004 C   0  0  0  0  0  0  0  0  0  0  0  0
   -3.5763    1.3294    0.3505 C   0  0  0  0  0  0  0  0  0  0  0  0
   -5.4555    2.3719    0.5821 H   0  0  0  0  0  0  0  0  0  0  0  0
   -6.7807    0.3851   -0.1871 H   0  0  0  0  0  0  0  0  0  0  0  0
   -1.6724   -2.1608   -0.7181 H   0  0  0  0  0  0  0  0  0  0  0  0
    0.7237   -2.6473   -0.7247 H   0  0  0  0  0  0  0  0  0  0  0  0
   -0.8828    1.8541    0.7101 H   0  0  0  0  0  0  0  0  0  0  0  0
    1.8554    2.2952    1.0441 H   0  0  0  0  0  0  0  0  0  0  0  0
    6.2623    0.6154    0.7630 H   0  0  0  0  0  0  0  0  0  0  0  0
    5.9365   -1.7040   -0.0534 H   0  0  0  0  0  0  0  0  0  0  0  0
    3.6079   -2.5264   -0.4906 H   0  0  0  0  0  0  0  0  0  0  0  0
   -3.0003    2.1844    0.6819 H   0  0  0  0  0  0  0  0  0  0  0  0
  1  2  2  0
  2  3  1  0
  3  4  2  0
  4  5  1  0
  5  6  1  0
  6  7  2  0
  7  8  1  0
  8  9  2  0
  9 10  1  0
 10 11  2  0
 10 12  1  0
 12 13  1  0
 13 14  2  0
 14 15  1  0
 15 16  2  0
 16 17  1  0
 17 18  2  0
  5 19  2  0
 19  1  1  0
 11  6  1  0
 18 13  1  0
 18  9  1  0
  1 20  1  0
  2 21  1  0
  7 22  1  0
  8 23  1  0
 11 24  1  0
 12 25  1  0
 15 26  1  0
 16 27  1  0
 17 28  1  0
 19 29  1  0
M  END
