
     RDKit          3D

 29 32  0  0  0  0  0  0  0  0999 V2000
   -5.1586    1.0499   -0.8542 C   0  0  0  0  0  0  0  0  0  0  0  0
   -5.8371    0.6014    0.2574 C   0  0  0  0  0  0  0  0  0  0  0  0
   -5.2016    0.0375    1.2962 N   0  0  0  0  0  0  0  0  0  0  0  0
   -3.8344   -0.0994    1.2562 N   0  0  0  0  0  0  0  0  0  0  0  0
   -3.1111    0.3227    0.1895 C   0  0  0  0  0  0  0  0  0  0  0  0
   -1.6415    0.1157    0.2730 C   0  0  0  0  0  0  0  0  0  0  0  0
   -1.0686   -0.4849    1.4046 C   0  0  0  0  0  0  0  0  0  0  0  0
    0.3126   -0.6992    1.5246 C   0  0  0  0  0  0  0  0  0  0  0  0
    1.1946   -0.3104    0.4903 C   0  0  0  0  0  0  0  0  0  0  0  0
    0.6349    0.2860   -0.6356 C   0  0  0  0  0  0  0  0  0  0  0  0
   -0.7590    0.5015   -0.7552 C   0  0  0  0  0  0  0  0  0  0  0  0
    1.8356    0.6959   -1.7914 S   0  0  0  0  0  0  0  0  0  0  0  0
    3.1131    0.0908   -0.8202 C   0  0  0  0  0  0  0  0  0  0  0  0
    4.4862    0.0851   -1.1391 C   0  0  0  0  0  0  0  0  0  0  0  0
    5.3936   -0.4513   -0.2239 C   0  0  0  0  0  0  0  0  0  0  0  0
    4.9502   -0.9715    0.9825 C   0  0  0  0  0  0  0  0  0  0  0  0
    3.5872   -0.9632    1.2936 C   0  0  0  0  0  0  0  0  0  0  0  0
    2.6373   -0.4254    0.3856 C   0  0  0  0  0  0  0  0  0  0  0  0
   -3.7724    0.9076   -0.8875 C   0  0  0  0  0  0  0  0  0  0  0  0
   -5.6922    1.5025   -1.6823 H   0  0  0  0  0  0  0  0  0  0  0  0
   -6.9135    0.6805    0.3495 H   0  0  0  0  0  0  0  0  0  0  0  0
   -1.7008   -0.8051    2.2337 H   0  0  0  0  0  0  0  0  0  0  0  0
    0.6989   -1.1695    2.4256 H   0  0  0  0  0  0  0  0  0  0  0  0
   -1.1214    0.9723   -1.6631 H   0  0  0  0  0  0  0  0  0  0  0  0
    4.8359    0.4922   -2.0839 H   0  0  0  0  0  0  0  0  0  0  0  0
    6.4548   -0.4600   -0.4612 H   0  0  0  0  0  0  0  0  0  0  0  0
    5.6626   -1.3877    1.6906 H   0  0  0  0  0  0  0  0  0  0  0  0
    3.2560   -1.3750    2.2437 H   0  0  0  0  0  0  0  0  0  0  0  0
   -3.2412    1.2610   -1.7627 H   0  0  0  0  0  0  0  0  0  0  0  0
  1  2  2  0
  2  3  1  0
  3  4  2  0
  4  5  1  0
  5  6  1  0
  6  7  2  0
  7  8  1  0
  8  9  2  0
  9 10  1  0
 10 11  2  0
 10 12  1  0
 12 13  1  0
 13 14  2  0
 14 15  1  0
 15 16  2  0
 16 17  1  0
 17 18  2  0
  5 19  2  0
 19  1  1  0
 11  6  1  0
 18 13  1  0
 18  9  1  0
  1 20  1  0
  2 21  1  0
  7 22  1  0
  8 23  1  0
 11 24  1  0
 14 25  1  0
 15 26  1  0
 16 27  1  0
 17 28  1  0
 19 29  1  0
M  END
