
     RDKit          3D

 24 26  0  0  0  0  0  0  0  0999 V2000
   -4.0917   -0.8384   -0.3197 C   0  0  0  0  0  0  0  0  0  0  0  0
   -4.7503    0.2980    0.0955 C   0  0  0  0  0  0  0  0  0  0  0  0
   -4.0889    1.3821    0.5307 N   0  0  0  0  0  0  0  0  0  0  0  0
   -2.7161    1.3653    0.5660 N   0  0  0  0  0  0  0  0  0  0  0  0
   -2.0135    0.2763    0.1702 C   0  0  0  0  0  0  0  0  0  0  0  0
   -0.5436    0.3894    0.2582 C   0  0  0  0  0  0  0  0  0  0  0  0
    0.0684    1.5545    0.7230 C   0  0  0  0  0  0  0  0  0  0  0  0
    1.4074    1.7445    0.8364 N   0  0  0  0  0  0  0  0  0  0  0  0
    2.2075    0.7281    0.4714 C   0  0  0  0  0  0  0  0  0  0  0  0
    3.5840    0.8609    0.5640 C   0  0  0  0  0  0  0  0  0  0  0  0
    4.4295   -0.1807    0.1907 C   0  0  0  0  0  0  0  0  0  0  0  0
    3.8530   -1.3464   -0.2732 C   0  0  0  0  0  0  0  0  0  0  0  0
    2.5196   -1.5257   -0.3824 N   0  0  0  0  0  0  0  0  0  0  0  0
    1.7220   -0.5010   -0.0141 C   0  0  0  0  0  0  0  0  0  0  0  0
    0.3424   -0.6373   -0.1082 C   0  0  0  0  0  0  0  0  0  0  0  0
   -2.6988   -0.8484   -0.2813 C   0  0  0  0  0  0  0  0  0  0  0  0
   -4.6461   -1.7029   -0.6676 H   0  0  0  0  0  0  0  0  0  0  0  0
   -5.8310    0.3746    0.0920 H   0  0  0  0  0  0  0  0  0  0  0  0
   -0.5203    2.4163    1.0352 H   0  0  0  0  0  0  0  0  0  0  0  0
    4.0014    1.7936    0.9339 H   0  0  0  0  0  0  0  0  0  0  0  0
    5.5065   -0.0797    0.2621 H   0  0  0  0  0  0  0  0  0  0  0  0
    4.4628   -2.1922   -0.5787 H   0  0  0  0  0  0  0  0  0  0  0  0
   -0.0233   -1.5885   -0.4836 H   0  0  0  0  0  0  0  0  0  0  0  0
   -2.1809   -1.7426   -0.6080 H   0  0  0  0  0  0  0  0  0  0  0  0
  1  2  2  0
  2  3  1  0
  3  4  2  0
  4  5  1  0
  5  6  1  0
  6  7  2  0
  7  8  1  0
  8  9  2  0
  9 10  1  0
 10 11  2  0
 11 12  1  0
 12 13  2  0
 13 14  1  0
 14 15  2  0
  5 16  2  0
 16  1  1  0
 15  6  1  0
 14  9  1  0
  1 17  1  0
  2 18  1  0
  7 19  1  0
 10 20  1  0
 11 21  1  0
 12 22  1  0
 15 23  1  0
 16 24  1  0
M  END
