
     RDKit          3D

 22 24  0  0  0  0  0  0  0  0999 V2000
    4.1046   -0.2175    0.7255 C   0  0  0  0  0  0  0  0  0  0  0  0
    4.5673    0.0217   -0.5533 C   0  0  0  0  0  0  0  0  0  0  0  0
    3.7373    0.2385   -1.5921 N   0  0  0  0  0  0  0  0  0  0  0  0
    2.3828    0.2241   -1.3869 N   0  0  0  0  0  0  0  0  0  0  0  0
    1.8882   -0.0067   -0.1481 C   0  0  0  0  0  0  0  0  0  0  0  0
    0.4377   -0.0088    0.0030 C   0  0  0  0  0  0  0  0  0  0  0  0
   -0.2836   -0.2074    1.0974 N   0  0  0  0  0  0  0  0  0  0  0  0
   -1.5792   -0.0979    0.6581 C   0  0  0  0  0  0  0  0  0  0  0  0
   -2.7970   -0.2076    1.3415 C   0  0  0  0  0  0  0  0  0  0  0  0
   -3.9832   -0.0434    0.6091 C   0  0  0  0  0  0  0  0  0  0  0  0
   -3.9547    0.2226   -0.7663 C   0  0  0  0  0  0  0  0  0  0  0  0
   -2.7448    0.3348   -1.4624 C   0  0  0  0  0  0  0  0  0  0  0  0
   -1.5952    0.1658   -0.7011 C   0  0  0  0  0  0  0  0  0  0  0  0
   -0.3036    0.2248   -1.1307 O   0  0  0  0  0  0  0  0  0  0  0  0
    2.7300   -0.2320    0.9331 C   0  0  0  0  0  0  0  0  0  0  0  0
    4.7956   -0.3889    1.5431 H   0  0  0  0  0  0  0  0  0  0  0  0
    5.6255    0.0471   -0.7871 H   0  0  0  0  0  0  0  0  0  0  0  0
   -2.8163   -0.4135    2.4057 H   0  0  0  0  0  0  0  0  0  0  0  0
   -4.9407   -0.1245    1.1201 H   0  0  0  0  0  0  0  0  0  0  0  0
   -4.8921    0.3448   -1.3064 H   0  0  0  0  0  0  0  0  0  0  0  0
   -2.7009    0.5399   -2.5246 H   0  0  0  0  0  0  0  0  0  0  0  0
    2.3223   -0.4161    1.9225 H   0  0  0  0  0  0  0  0  0  0  0  0
  1  2  2  0
  2  3  1  0
  3  4  2  0
  4  5  1  0
  5  6  1  0
  6  7  2  0
  7  8  1  0
  8  9  2  0
  9 10  1  0
 10 11  2  0
 11 12  1  0
 12 13  2  0
 13 14  1  0
  5 15  2  0
 15  1  1  0
 14  6  1  0
 13  8  1  0
  1 16  1  0
  2 17  1  0
  9 18  1  0
 10 19  1  0
 11 20  1  0
 12 21  1  0
 15 22  1  0
M  END
