
     RDKit          3D

 15 16  0  0  0  0  0  0  0  0999 V2000
    2.3553    0.7444    0.0441 C   0  0  0  0  0  0  0  0  0  0  0  0
    2.8154   -0.5061   -0.3159 C   0  0  0  0  0  0  0  0  0  0  0  0
    1.9844   -1.5421   -0.5356 N   0  0  0  0  0  0  0  0  0  0  0  0
    0.6312   -1.3626   -0.4007 N   0  0  0  0  0  0  0  0  0  0  0  0
    0.1356   -0.1524   -0.0490 C   0  0  0  0  0  0  0  0  0  0  0  0
   -1.3155   -0.0370    0.0754 C   0  0  0  0  0  0  0  0  0  0  0  0
   -2.1772   -1.0953   -0.1483 N   0  0  0  0  0  0  0  0  0  0  0  0
   -3.3487   -0.5585    0.0693 C   0  0  0  0  0  0  0  0  0  0  0  0
   -3.2967    0.7512    0.4117 O   0  0  0  0  0  0  0  0  0  0  0  0
   -1.9477    1.1036    0.4175 N   0  0  0  0  0  0  0  0  0  0  0  0
    0.9827    0.9261    0.1810 C   0  0  0  0  0  0  0  0  0  0  0  0
    3.0470    1.5616    0.2151 H   0  0  0  0  0  0  0  0  0  0  0  0
    3.8710   -0.7181   -0.4402 H   0  0  0  0  0  0  0  0  0  0  0  0
   -4.3262   -1.0127    0.0126 H   0  0  0  0  0  0  0  0  0  0  0  0
    0.5894    1.8979    0.4630 H   0  0  0  0  0  0  0  0  0  0  0  0
  1  2  2  0
  2  3  1  0
  3  4  2  0
  4  5  1  0
  5  6  1  0
  6  7  1  0
  7  8  2  0
  8  9  1  0
  9 10  1  0
  5 11  2  0
 11  1  1  0
 10  6  2  0
  1 12  1  0
  2 13  1  0
  8 14  1  0
 11 15  1  0
M  END
