
     RDKit          3D

 39 45  0  0  0  0  0  0  0  0999 V2000
   -6.0193   -2.1905    0.2203 C   0  0  0  0  0  0  0  0  0  0  0  0
   -6.4052   -0.8933   -0.0117 C   0  0  0  0  0  0  0  0  0  0  0  0
   -5.3197   -0.0875   -0.1282 O   0  0  0  0  0  0  0  0  0  0  0  0
   -4.2025   -0.8687    0.0298 C   0  0  0  0  0  0  0  0  0  0  0  0
   -4.6043   -2.1761    0.2472 C   0  0  0  0  0  0  0  0  0  0  0  0
   -2.8701   -0.3508   -0.0319 C   0  0  0  0  0  0  0  0  0  0  0  0
   -2.4615    0.9502   -0.2481 C   0  0  0  0  0  0  0  0  0  0  0  0
   -1.0338    0.9675   -0.2214 C   0  0  0  0  0  0  0  0  0  0  0  0
   -0.6529   -0.3435    0.0128 C   0  0  0  0  0  0  0  0  0  0  0  0
   -1.7614   -1.1309    0.1258 O   0  0  0  0  0  0  0  0  0  0  0  0
    0.6747   -0.7727    0.1145 C   0  0  0  0  0  0  0  0  0  0  0  0
    0.9867   -2.1430    0.3575 C   0  0  0  0  0  0  0  0  0  0  0  0
    0.1347   -3.1813    0.5191 N   0  0  0  0  0  0  0  0  0  0  0  0
    1.0522   -4.5524    0.7748 S   0  0  0  0  0  0  0  0  0  0  0  0
    2.5911   -3.9023    0.6945 N   0  0  0  0  0  0  0  0  0  0  0  0
    2.3427   -2.6208    0.4681 C   0  0  0  0  0  0  0  0  0  0  0  0
    3.3755   -1.6545    0.3227 C   0  0  0  0  0  0  0  0  0  0  0  0
    4.7482   -1.9039    0.3943 C   0  0  0  0  0  0  0  0  0  0  0  0
    5.3312   -0.6779    0.1946 C   0  0  0  0  0  0  0  0  0  0  0  0
    4.3317    0.2528    0.0132 N   0  0  0  0  0  0  0  0  0  0  0  0
    3.0686   -0.3206    0.0861 C   0  0  0  0  0  0  0  0  0  0  0  0
    1.7212    0.2114   -0.0337 C   0  0  0  0  0  0  0  0  0  0  0  0
    1.3569    1.6021   -0.2813 C   0  0  0  0  0  0  0  0  0  0  0  0
    2.2479    2.6953   -0.4515 C   0  0  0  0  0  0  0  0  0  0  0  0
    1.8206    4.0105   -0.6874 C   0  0  0  0  0  0  0  0  0  0  0  0
    0.4708    4.3022   -0.7658 C   0  0  0  0  0  0  0  0  0  0  0  0
   -0.4517    3.2778   -0.6081 C   0  0  0  0  0  0  0  0  0  0  0  0
   -0.0251    1.9508   -0.3702 C   0  0  0  0  0  0  0  0  0  0  0  0
   -6.6739   -3.0400    0.3534 H   0  0  0  0  0  0  0  0  0  0  0  0
   -7.3634   -0.4037   -0.1160 H   0  0  0  0  0  0  0  0  0  0  0  0
   -3.9395   -3.0150    0.4058 H   0  0  0  0  0  0  0  0  0  0  0  0
   -3.1277    1.7866   -0.4063 H   0  0  0  0  0  0  0  0  0  0  0  0
    5.2552   -2.8447    0.5672 H   0  0  0  0  0  0  0  0  0  0  0  0
    6.3708   -0.3787    0.1645 H   0  0  0  0  0  0  0  0  0  0  0  0
    4.5329    1.2236   -0.1503 H   0  0  0  0  0  0  0  0  0  0  0  0
    3.3170    2.5712   -0.4078 H   0  0  0  0  0  0  0  0  0  0  0  0
    2.5539    4.8045   -0.8092 H   0  0  0  0  0  0  0  0  0  0  0  0
    0.1360    5.3195   -0.9484 H   0  0  0  0  0  0  0  0  0  0  0  0
   -1.5083    3.5267   -0.6731 H   0  0  0  0  0  0  0  0  0  0  0  0
  1  2  2  0
  2  3  1  0
  3  4  1  0
  4  5  2  0
  4  6  1  0
  6  7  2  0
  7  8  1  0
  8  9  2  0
  9 10  1  0
  9 11  1  0
 11 12  1  0
 12 13  2  0
 13 14  1  0
 14 15  1  0
 15 16  2  0
 16 17  1  0
 17 18  1  0
 18 19  2  0
 19 20  1  0
 20 21  1  0
 21 22  1  0
 22 23  1  0
 23 24  2  0
 24 25  1  0
 25 26  2  0
 26 27  1  0
 27 28  2  0
  5  1  1  0
 10  6  1  0
 22 11  2  0
 28 23  1  0
 28  8  1  0
 16 12  1  0
 21 17  2  0
  1 29  1  0
  2 30  1  0
  5 31  1  0
  7 32  1  0
 18 33  1  0
 19 34  1  0
 20 35  1  0
 24 36  1  0
 25 37  1  0
 26 38  1  0
 27 39  1  0
M  END
