
     RDKit          3D

 39 45  0  0  0  0  0  0  0  0999 V2000
    6.8406   -0.0611    1.2315 C   0  0  0  0  0  0  0  0  0  0  0  0
    6.2533    0.2270    2.4372 C   0  0  0  0  0  0  0  0  0  0  0  0
    4.9038    0.2391    2.3149 O   0  0  0  0  0  0  0  0  0  0  0  0
    4.5897   -0.0457    1.0074 C   0  0  0  0  0  0  0  0  0  0  0  0
    5.7764   -0.2364    0.3134 C   0  0  0  0  0  0  0  0  0  0  0  0
    3.2359   -0.1151    0.5220 C   0  0  0  0  0  0  0  0  0  0  0  0
    2.8133   -0.3907   -0.7592 C   0  0  0  0  0  0  0  0  0  0  0  0
    1.4074   -0.3626   -0.8170 C   0  0  0  0  0  0  0  0  0  0  0  0
    0.6482   -0.6022   -1.9819 C   0  0  0  0  0  0  0  0  0  0  0  0
    1.1084   -0.8954   -3.2265 C   0  0  0  0  0  0  0  0  0  0  0  0
    0.0204   -1.0441   -4.0298 O   0  0  0  0  0  0  0  0  0  0  0  0
   -1.0902   -0.8364   -3.2504 C   0  0  0  0  0  0  0  0  0  0  0  0
   -0.7565   -0.5513   -1.9383 C   0  0  0  0  0  0  0  0  0  0  0  0
   -1.6107   -0.2747   -0.8191 C   0  0  0  0  0  0  0  0  0  0  0  0
   -3.1139   -0.2239   -0.7891 C   0  0  0  0  0  0  0  0  0  0  0  0
   -3.9849   -0.4427   -1.8758 C   0  0  0  0  0  0  0  0  0  0  0  0
   -5.3477   -0.4039   -1.8807 N   0  0  0  0  0  0  0  0  0  0  0  0
   -5.9504   -0.1254   -0.7201 C   0  0  0  0  0  0  0  0  0  0  0  0
   -5.2516    0.1148    0.4395 C   0  0  0  0  0  0  0  0  0  0  0  0
   -3.8340    0.0655    0.4048 C   0  0  0  0  0  0  0  0  0  0  0  0
   -2.9978    0.2935    1.5278 C   0  0  0  0  0  0  0  0  0  0  0  0
   -3.5100    0.5887    2.7744 C   0  0  0  0  0  0  0  0  0  0  0  0
   -2.2889    0.8151    3.9409 S   0  0  0  0  0  0  0  0  0  0  0  0
   -1.0636    0.5186    2.7812 C   0  0  0  0  0  0  0  0  0  0  0  0
   -1.5434    0.2483    1.5163 C   0  0  0  0  0  0  0  0  0  0  0  0
   -0.7565   -0.0339    0.3634 C   0  0  0  0  0  0  0  0  0  0  0  0
    0.6943   -0.0819    0.3385 C   0  0  0  0  0  0  0  0  0  0  0  0
    1.9079    0.1580    1.5642 S   0  0  0  0  0  0  0  0  0  0  0  0
    7.9014   -0.1357    1.0380 H   0  0  0  0  0  0  0  0  0  0  0  0
    6.6342    0.4383    3.4267 H   0  0  0  0  0  0  0  0  0  0  0  0
    5.8666   -0.4751   -0.7369 H   0  0  0  0  0  0  0  0  0  0  0  0
    3.4826   -0.5958   -1.5843 H   0  0  0  0  0  0  0  0  0  0  0  0
    2.0712   -1.0295   -3.6977 H   0  0  0  0  0  0  0  0  0  0  0  0
   -1.9950   -0.9388   -3.8238 H   0  0  0  0  0  0  0  0  0  0  0  0
   -3.6226   -0.6752   -2.8631 H   0  0  0  0  0  0  0  0  0  0  0  0
   -7.0352   -0.0993   -0.7453 H   0  0  0  0  0  0  0  0  0  0  0  0
   -5.8055    0.3343    1.3437 H   0  0  0  0  0  0  0  0  0  0  0  0
   -4.5371    0.6901    3.0919 H   0  0  0  0  0  0  0  0  0  0  0  0
   -0.0600    0.5747    3.1614 H   0  0  0  0  0  0  0  0  0  0  0  0
  1  2  2  0
  2  3  1  0
  3  4  1  0
  4  5  2  0
  4  6  1  0
  6  7  2  0
  7  8  1  0
  8  9  1  0
  9 10  2  0
 10 11  1  0
 11 12  1  0
 12 13  2  0
 13 14  1  0
 14 15  1  0
 15 16  2  0
 16 17  1  0
 17 18  2  0
 18 19  1  0
 19 20  2  0
 20 21  1  0
 21 22  2  0
 22 23  1  0
 23 24  1  0
 24 25  2  0
 25 26  1  0
 26 27  1  0
 27 28  1  0
  5  1  1  0
 28  6  1  0
 27  8  2  0
 13  9  1  0
 26 14  2  0
 20 15  1  0
 25 21  1  0
  1 29  1  0
  2 30  1  0
  5 31  1  0
  7 32  1  0
 10 33  1  0
 12 34  1  0
 16 35  1  0
 18 36  1  0
 19 37  1  0
 22 38  1  0
 24 39  1  0
M  END
