
     RDKit          3D

 43 49  0  0  0  0  0  0  0  0999 V2000
    6.8778    1.3719    0.8888 C   0  0  0  0  0  0  0  0  0  0  0  0
    6.8887    0.0977    0.3738 C   0  0  0  0  0  0  0  0  0  0  0  0
    5.6215   -0.3392    0.1550 O   0  0  0  0  0  0  0  0  0  0  0  0
    4.7742    0.6677    0.5342 C   0  0  0  0  0  0  0  0  0  0  0  0
    5.5152    1.7406    0.9924 C   0  0  0  0  0  0  0  0  0  0  0  0
    3.3463    0.4233    0.3869 C   0  0  0  0  0  0  0  0  0  0  0  0
    2.8296   -0.7682   -0.0838 C   0  0  0  0  0  0  0  0  0  0  0  0
    1.4233   -0.9061   -0.1913 C   0  0  0  0  0  0  0  0  0  0  0  0
    0.7500   -2.0917   -0.5712 C   0  0  0  0  0  0  0  0  0  0  0  0
    1.3991   -3.2504   -0.9381 C   0  0  0  0  0  0  0  0  0  0  0  0
    0.3018   -4.4929   -1.3601 S   0  0  0  0  0  0  0  0  0  0  0  0
   -1.0474   -3.4816   -1.0471 C   0  0  0  0  0  0  0  0  0  0  0  0
   -0.6853   -2.2401   -0.5695 C   0  0  0  0  0  0  0  0  0  0  0  0
   -1.5818   -1.1994   -0.2306 C   0  0  0  0  0  0  0  0  0  0  0  0
   -2.9719   -1.3530   -0.0373 C   0  0  0  0  0  0  0  0  0  0  0  0
   -3.7629   -2.4791    0.0928 N   0  0  0  0  0  0  0  0  0  0  0  0
   -5.0731   -2.1441    0.2824 C   0  0  0  0  0  0  0  0  0  0  0  0
   -5.1426   -0.7753    0.3176 C   0  0  0  0  0  0  0  0  0  0  0  0
   -3.8185   -0.2601    0.1519 C   0  0  0  0  0  0  0  0  0  0  0  0
   -3.2650    1.0428    0.0944 C   0  0  0  0  0  0  0  0  0  0  0  0
   -4.1534    2.1424    0.1641 C   0  0  0  0  0  0  0  0  0  0  0  0
   -3.6894    3.4442    0.0256 C   0  0  0  0  0  0  0  0  0  0  0  0
   -2.3441    3.6573   -0.2145 C   0  0  0  0  0  0  0  0  0  0  0  0
   -1.4612    2.5707   -0.2668 C   0  0  0  0  0  0  0  0  0  0  0  0
   -1.8609    1.2243   -0.0507 C   0  0  0  0  0  0  0  0  0  0  0  0
   -0.9604    0.0875   -0.0521 C   0  0  0  0  0  0  0  0  0  0  0  0
    0.5249    0.1644    0.1067 C   0  0  0  0  0  0  0  0  0  0  0  0
    1.2069    1.2699    0.6456 C   0  0  0  0  0  0  0  0  0  0  0  0
    2.5526    1.4397    0.7754 N   0  0  0  0  0  0  0  0  0  0  0  0
    7.7431    1.9615    1.1561 H   0  0  0  0  0  0  0  0  0  0  0  0
    7.6740   -0.5998    0.1178 H   0  0  0  0  0  0  0  0  0  0  0  0
    5.1051    2.6729    1.3558 H   0  0  0  0  0  0  0  0  0  0  0  0
    3.5011   -1.5781   -0.3424 H   0  0  0  0  0  0  0  0  0  0  0  0
    2.4582   -3.4534   -1.0064 H   0  0  0  0  0  0  0  0  0  0  0  0
   -2.0199   -3.8816   -1.2811 H   0  0  0  0  0  0  0  0  0  0  0  0
   -3.4187   -3.4265    0.1174 H   0  0  0  0  0  0  0  0  0  0  0  0
   -5.8352   -2.9039    0.3923 H   0  0  0  0  0  0  0  0  0  0  0  0
   -6.0491   -0.2034    0.4640 H   0  0  0  0  0  0  0  0  0  0  0  0
   -5.2207    1.9918    0.3044 H   0  0  0  0  0  0  0  0  0  0  0  0
   -4.3810    4.2807    0.0678 H   0  0  0  0  0  0  0  0  0  0  0  0
   -1.9726    4.6653   -0.3816 H   0  0  0  0  0  0  0  0  0  0  0  0
   -0.4399    2.8088   -0.5531 H   0  0  0  0  0  0  0  0  0  0  0  0
    0.6617    2.1026    1.0824 H   0  0  0  0  0  0  0  0  0  0  0  0
  1  2  2  0
  2  3  1  0
  3  4  1  0
  4  5  2  0
  4  6  1  0
  6  7  2  0
  7  8  1  0
  8  9  1  0
  9 10  2  0
 10 11  1  0
 11 12  1  0
 12 13  2  0
 13 14  1  0
 14 15  2  0
 15 16  1  0
 16 17  1  0
 17 18  2  0
 18 19  1  0
 19 20  2  0
 20 21  1  0
 21 22  2  0
 22 23  1  0
 23 24  2  0
 24 25  1  0
 25 26  2  0
 26 27  1  0
 27 28  1  0
 28 29  2  0
  5  1  1  0
 29  6  1  0
 27  8  2  0
 13  9  1  0
 26 14  1  0
 19 15  1  0
 25 20  1  0
  1 30  1  0
  2 31  1  0
  5 32  1  0
  7 33  1  0
 10 34  1  0
 12 35  1  0
 16 36  1  0
 17 37  1  0
 18 38  1  0
 21 39  1  0
 22 40  1  0
 23 41  1  0
 24 42  1  0
 28 43  1  0
M  END
