
     RDKit          3D

 41 48  0  0  0  0  0  0  0  0999 V2000
    6.8458    0.6377   -1.1454 C   0  0  0  0  0  0  0  0  0  0  0  0
    6.8358    0.0551    0.0990 C   0  0  0  0  0  0  0  0  0  0  0  0
    5.5671   -0.2598    0.4650 O   0  0  0  0  0  0  0  0  0  0  0  0
    4.7440    0.1120   -0.5591 C   0  0  0  0  0  0  0  0  0  0  0  0
    5.4946    0.6848   -1.5675 C   0  0  0  0  0  0  0  0  0  0  0  0
    3.3265   -0.1024   -0.3653 C   0  0  0  0  0  0  0  0  0  0  0  0
    2.3492    0.8136   -0.7958 C   0  0  0  0  0  0  0  0  0  0  0  0
    0.9327    0.6513   -0.6148 C   0  0  0  0  0  0  0  0  0  0  0  0
    0.0957    1.6126   -1.1417 C   0  0  0  0  0  0  0  0  0  0  0  0
   -1.2522    1.6050   -1.0682 N   0  0  0  0  0  0  0  0  0  0  0  0
   -1.9102    0.6725   -0.3719 C   0  0  0  0  0  0  0  0  0  0  0  0
   -3.3450    0.7692   -0.3045 C   0  0  0  0  0  0  0  0  0  0  0  0
   -4.1315    1.7522   -1.0336 C   0  0  0  0  0  0  0  0  0  0  0  0
   -3.6795    2.7015   -1.8750 N   0  0  0  0  0  0  0  0  0  0  0  0
   -4.9759    3.5525   -2.4383 S   0  0  0  0  0  0  0  0  0  0  0  0
   -6.2112    2.7713   -1.6632 N   0  0  0  0  0  0  0  0  0  0  0  0
   -5.6469    1.8053   -0.9226 C   0  0  0  0  0  0  0  0  0  0  0  0
   -6.3667    0.9082   -0.1088 C   0  0  0  0  0  0  0  0  0  0  0  0
   -5.5985   -0.0261    0.5880 C   0  0  0  0  0  0  0  0  0  0  0  0
   -4.1712   -0.0913    0.4943 C   0  0  0  0  0  0  0  0  0  0  0  0
   -3.4543   -1.0492    1.2647 C   0  0  0  0  0  0  0  0  0  0  0  0
   -4.0061   -1.9188    2.1314 N   0  0  0  0  0  0  0  0  0  0  0  0
   -2.7712   -2.7494    2.8407 S   0  0  0  0  0  0  0  0  0  0  0  0
   -1.4895   -2.0703    2.0605 N   0  0  0  0  0  0  0  0  0  0  0  0
   -1.9536   -1.1719    1.1751 C   0  0  0  0  0  0  0  0  0  0  0  0
   -1.1612   -0.3534    0.2819 C   0  0  0  0  0  0  0  0  0  0  0  0
    0.2931   -0.4315    0.0614 C   0  0  0  0  0  0  0  0  0  0  0  0
    1.3010   -1.4229    0.3749 C   0  0  0  0  0  0  0  0  0  0  0  0
    1.0314   -2.7222    0.7408 C   0  0  0  0  0  0  0  0  0  0  0  0
    2.4424   -3.6479    1.0436 S   0  0  0  0  0  0  0  0  0  0  0  0
    3.4580   -2.3647    0.5527 C   0  0  0  0  0  0  0  0  0  0  0  0
    2.7395   -1.2484    0.1838 C   0  0  0  0  0  0  0  0  0  0  0  0
    7.7178    0.9895   -1.6786 H   0  0  0  0  0  0  0  0  0  0  0  0
    7.6040   -0.1906    0.8191 H   0  0  0  0  0  0  0  0  0  0  0  0
    5.1136    1.0822   -2.4977 H   0  0  0  0  0  0  0  0  0  0  0  0
    2.7006    1.7201   -1.2947 H   0  0  0  0  0  0  0  0  0  0  0  0
    0.4872    2.4660   -1.6928 H   0  0  0  0  0  0  0  0  0  0  0  0
   -7.4464    0.9486   -0.0297 H   0  0  0  0  0  0  0  0  0  0  0  0
   -6.1247   -0.7314    1.2350 H   0  0  0  0  0  0  0  0  0  0  0  0
    0.0893   -3.2337    0.8381 H   0  0  0  0  0  0  0  0  0  0  0  0
    4.5270   -2.5252    0.5337 H   0  0  0  0  0  0  0  0  0  0  0  0
  1  2  2  0
  2  3  1  0
  3  4  1  0
  4  5  2  0
  4  6  1  0
  6  7  2  0
  7  8  1  0
  8  9  2  0
  9 10  1  0
 10 11  2  0
 11 12  1  0
 12 13  1  0
 13 14  2  0
 14 15  1  0
 15 16  1  0
 16 17  2  0
 17 18  1  0
 18 19  2  0
 19 20  1  0
 20 21  1  0
 21 22  2  0
 22 23  1  0
 23 24  1  0
 24 25  2  0
 25 26  1  0
 26 27  2  0
 27 28  1  0
 28 29  2  0
 29 30  1  0
 30 31  1  0
 31 32  2  0
  5  1  1  0
 32  6  1  0
 27  8  1  0
 32 28  1  0
 26 11  1  0
 20 12  2  0
 25 21  1  0
 17 13  1  0
  1 33  1  0
  2 34  1  0
  5 35  1  0
  7 36  1  0
  9 37  1  0
 18 38  1  0
 19 39  1  0
 29 40  1  0
 31 41  1  0
M  END
