
     RDKit          3D

 47 54  0  0  0  0  0  0  0  0999 V2000
    4.7185    3.4947   -0.5727 Si  0  0  0  0  0  4  0  0  0  0  0  0
    5.7899    2.0173   -0.2242 C   0  0  0  0  0  0  0  0  0  0  0  0
    5.0468    0.9115   -0.0292 C   0  0  0  0  0  0  0  0  0  0  0  0
    5.6240   -0.3987    0.1853 C   0  0  0  0  0  0  0  0  0  0  0  0
    4.8347   -1.4784    0.3054 C   0  0  0  0  0  0  0  0  0  0  0  0
    3.3728   -1.3426    0.2611 C   0  0  0  0  0  0  0  0  0  0  0  0
    2.5035   -2.4196    0.4309 C   0  0  0  0  0  0  0  0  0  0  0  0
    2.8380   -3.7366    0.6546 C   0  0  0  0  0  0  0  0  0  0  0  0
    1.7117   -4.4916    0.8459 O   0  0  0  0  0  0  0  0  0  0  0  0
    0.6346   -3.6499    0.7411 C   0  0  0  0  0  0  0  0  0  0  0  0
    1.0960   -2.4049    0.4480 C   0  0  0  0  0  0  0  0  0  0  0  0
    0.4411   -1.1502    0.2755 C   0  0  0  0  0  0  0  0  0  0  0  0
    1.2730   -0.0262    0.1755 C   0  0  0  0  0  0  0  0  0  0  0  0
    0.3923    1.0432    0.2211 N   0  0  0  0  0  0  0  0  0  0  0  0
   -0.9279    0.6350    0.2471 C   0  0  0  0  0  0  0  0  0  0  0  0
   -2.1163    1.4082    0.2930 C   0  0  0  0  0  0  0  0  0  0  0  0
   -3.3906    0.7962    0.2843 C   0  0  0  0  0  0  0  0  0  0  0  0
   -4.6243    1.5514    0.3629 C   0  0  0  0  0  0  0  0  0  0  0  0
   -5.8779    1.3321    0.9007 C   0  0  0  0  0  0  0  0  0  0  0  0
   -6.6444    2.4957    0.6466 C   0  0  0  0  0  0  0  0  0  0  0  0
   -5.8118    3.3604   -0.0210 C   0  0  0  0  0  0  0  0  0  0  0  0
   -4.5857    2.8037   -0.1896 O   0  0  0  0  0  0  0  0  0  0  0  0
   -3.3155   -0.5985    0.1698 C   0  0  0  0  0  0  0  0  0  0  0  0
   -4.3689   -1.4742    0.0014 C   0  0  0  0  0  0  0  0  0  0  0  0
   -3.8528   -2.7458   -0.1565 N   0  0  0  0  0  0  0  0  0  0  0  0
   -2.4749   -2.7081   -0.1187 C   0  0  0  0  0  0  0  0  0  0  0  0
   -2.1515   -1.4061    0.1207 C   0  0  0  0  0  0  0  0  0  0  0  0
   -0.8845   -0.7526    0.2170 C   0  0  0  0  0  0  0  0  0  0  0  0
    2.7003   -0.0870    0.1075 C   0  0  0  0  0  0  0  0  0  0  0  0
    3.5704    1.1055   -0.1006 C   0  0  0  0  0  0  0  0  0  0  0  0
    3.2192    2.3712   -0.4154 C   0  0  0  0  0  0  0  0  0  0  0  0
    4.7621    4.5098    0.5070 H   0  0  0  0  0  0  0  0  0  0  0  0
    4.8808    4.0163   -1.9507 H   0  0  0  0  0  0  0  0  0  0  0  0
    6.8662    2.0867   -0.2295 H   0  0  0  0  0  0  0  0  0  0  0  0
    6.7039   -0.4976    0.2245 H   0  0  0  0  0  0  0  0  0  0  0  0
    5.2759   -2.4567    0.4514 H   0  0  0  0  0  0  0  0  0  0  0  0
    3.7664   -4.2840    0.7327 H   0  0  0  0  0  0  0  0  0  0  0  0
   -0.3178   -4.1101    0.9408 H   0  0  0  0  0  0  0  0  0  0  0  0
    0.6681    2.0090    0.2738 H   0  0  0  0  0  0  0  0  0  0  0  0
   -2.0487    2.4935    0.3408 H   0  0  0  0  0  0  0  0  0  0  0  0
   -6.1970    0.4444    1.4277 H   0  0  0  0  0  0  0  0  0  0  0  0
   -7.6721    2.6833    0.9228 H   0  0  0  0  0  0  0  0  0  0  0  0
   -5.9299    4.3581   -0.4198 H   0  0  0  0  0  0  0  0  0  0  0  0
   -5.4373   -1.3254   -0.0635 H   0  0  0  0  0  0  0  0  0  0  0  0
   -4.4044   -3.5753   -0.3338 H   0  0  0  0  0  0  0  0  0  0  0  0
   -1.9092   -3.6022   -0.3190 H   0  0  0  0  0  0  0  0  0  0  0  0
    2.2532    2.7948   -0.6080 H   0  0  0  0  0  0  0  0  0  0  0  0
  1  2  1  0
  2  3  2  0
  3  4  1  0
  4  5  2  0
  5  6  1  0
  6  7  1  0
  7  8  2  0
  8  9  1  0
  9 10  1  0
 10 11  2  0
 11 12  1  0
 12 13  2  0
 13 14  1  0
 14 15  1  0
 15 16  1  0
 16 17  2  0
 17 18  1  0
 18 19  2  0
 19 20  1  0
 20 21  2  0
 21 22  1  0
 17 23  1  0
 23 24  2  0
 24 25  1  0
 25 26  1  0
 26 27  2  0
 27 28  1  0
 13 29  1  0
 29 30  1  0
 30 31  2  0
 31  1  1  0
 30  3  1  0
 29  6  2  0
 11  7  1  0
 28 12  1  0
 28 15  2  0
 22 18  1  0
 27 23  1  0
  1 32  1  0
  1 33  1  0
  2 34  1  0
  4 35  1  0
  5 36  1  0
  8 37  1  0
 10 38  1  0
 14 39  1  0
 16 40  1  0
 19 41  1  0
 20 42  1  0
 21 43  1  0
 24 44  1  0
 25 45  1  0
 26 46  1  0
 31 47  1  0
M  END
