
     RDKit          3D

 34 39  0  0  0  0  0  0  0  0999 V2000
    6.0691   -0.1000   -0.3895 C   0  0  0  0  0  0  0  0  0  0  0  0
    5.8622   -0.2806    0.9557 C   0  0  0  0  0  0  0  0  0  0  0  0
    4.5345   -0.2833    1.2336 O   0  0  0  0  0  0  0  0  0  0  0  0
    3.8635   -0.1026    0.0579 C   0  0  0  0  0  0  0  0  0  0  0  0
    4.7821    0.0149   -0.9699 C   0  0  0  0  0  0  0  0  0  0  0  0
    2.4148   -0.0709    0.1103 C   0  0  0  0  0  0  0  0  0  0  0  0
    1.5926    0.1111   -1.0452 C   0  0  0  0  0  0  0  0  0  0  0  0
    0.1692    0.1541   -1.0792 C   0  0  0  0  0  0  0  0  0  0  0  0
   -0.4400    0.3345   -2.2643 N   0  0  0  0  0  0  0  0  0  0  0  0
   -1.7976    0.3843   -2.3601 C   0  0  0  0  0  0  0  0  0  0  0  0
   -2.5856    0.2481   -1.2232 C   0  0  0  0  0  0  0  0  0  0  0  0
   -3.9571    0.2394   -0.8931 C   0  0  0  0  0  0  0  0  0  0  0  0
   -5.2200    0.3454   -1.4139 N   0  0  0  0  0  0  0  0  0  0  0  0
   -6.1142    0.2247   -0.3683 C   0  0  0  0  0  0  0  0  0  0  0  0
   -5.4338    0.0415    0.8241 C   0  0  0  0  0  0  0  0  0  0  0  0
   -4.0842    0.0585    0.4386 C   0  0  0  0  0  0  0  0  0  0  0  0
   -2.8698   -0.0565    1.0342 O   0  0  0  0  0  0  0  0  0  0  0  0
   -1.9675    0.0610    0.0091 C   0  0  0  0  0  0  0  0  0  0  0  0
   -0.5858    0.0091    0.1156 C   0  0  0  0  0  0  0  0  0  0  0  0
    0.1927   -0.1697    1.2568 C   0  0  0  0  0  0  0  0  0  0  0  0
   -0.2129   -0.3383    2.5543 C   0  0  0  0  0  0  0  0  0  0  0  0
    0.8810   -0.4792    3.3599 O   0  0  0  0  0  0  0  0  0  0  0  0
    1.9916   -0.3992    2.5655 C   0  0  0  0  0  0  0  0  0  0  0  0
    1.6233   -0.2083    1.2572 C   0  0  0  0  0  0  0  0  0  0  0  0
    7.0263   -0.0566   -0.8894 H   0  0  0  0  0  0  0  0  0  0  0  0
    6.5180   -0.4157    1.8045 H   0  0  0  0  0  0  0  0  0  0  0  0
    4.5550    0.1658   -2.0158 H   0  0  0  0  0  0  0  0  0  0  0  0
    2.0877    0.2314   -2.0107 H   0  0  0  0  0  0  0  0  0  0  0  0
   -2.2019    0.5328   -3.3549 H   0  0  0  0  0  0  0  0  0  0  0  0
   -5.4259    0.4867   -2.3956 H   0  0  0  0  0  0  0  0  0  0  0  0
   -7.1776    0.2806   -0.5652 H   0  0  0  0  0  0  0  0  0  0  0  0
   -5.8524   -0.0840    1.8119 H   0  0  0  0  0  0  0  0  0  0  0  0
   -1.1693   -0.3821    3.0568 H   0  0  0  0  0  0  0  0  0  0  0  0
    2.9320   -0.4969    3.0890 H   0  0  0  0  0  0  0  0  0  0  0  0
  1  2  2  0
  2  3  1  0
  3  4  1  0
  4  5  2  0
  4  6  1  0
  6  7  2  0
  7  8  1  0
  8  9  2  0
  9 10  1  0
 10 11  2  0
 11 12  1  0
 12 13  1  0
 13 14  1  0
 14 15  2  0
 15 16  1  0
 16 17  1  0
 17 18  1  0
 18 19  2  0
 19 20  1  0
 20 21  2  0
 21 22  1  0
 22 23  1  0
 23 24  2  0
  5  1  1  0
 24  6  1  0
 19  8  1  0
 24 20  1  0
 18 11  1  0
 16 12  2  0
  1 25  1  0
  2 26  1  0
  5 27  1  0
  7 28  1  0
 10 29  1  0
 13 30  1  0
 14 31  1  0
 15 32  1  0
 21 33  1  0
 23 34  1  0
M  END
