
     RDKit          3D

 36 41  0  0  0  0  0  0  0  0999 V2000
   -6.7730   -0.3160   -0.0948 C   0  0  0  0  0  0  0  0  0  0  0  0
   -6.4403   -1.6183    0.1834 C   0  0  0  0  0  0  0  0  0  0  0  0
   -5.0936   -1.7569    0.2512 O   0  0  0  0  0  0  0  0  0  0  0  0
   -4.5338   -0.5344    0.0156 C   0  0  0  0  0  0  0  0  0  0  0  0
   -5.5463    0.3846   -0.2034 C   0  0  0  0  0  0  0  0  0  0  0  0
   -3.0801   -0.4417    0.0389 C   0  0  0  0  0  0  0  0  0  0  0  0
   -2.4119    0.7794   -0.1933 C   0  0  0  0  0  0  0  0  0  0  0  0
   -1.0258    0.9717   -0.1925 C   0  0  0  0  0  0  0  0  0  0  0  0
   -0.6293    2.2207   -0.4384 N   0  0  0  0  0  0  0  0  0  0  0  0
    0.6939    2.4906   -0.4554 C   0  0  0  0  0  0  0  0  0  0  0  0
    1.6994    1.5581   -0.2339 C   0  0  0  0  0  0  0  0  0  0  0  0
    3.0530    1.9327   -0.2716 C   0  0  0  0  0  0  0  0  0  0  0  0
    4.0651    0.9899   -0.0477 C   0  0  0  0  0  0  0  0  0  0  0  0
    5.4229    1.3385   -0.0800 C   0  0  0  0  0  0  0  0  0  0  0  0
    6.3900    0.3681    0.1483 C   0  0  0  0  0  0  0  0  0  0  0  0
    5.9634   -0.9206    0.4015 C   0  0  0  0  0  0  0  0  0  0  0  0
    4.6641   -1.2888    0.4395 N   0  0  0  0  0  0  0  0  0  0  0  0
    3.7288   -0.3473    0.2181 C   0  0  0  0  0  0  0  0  0  0  0  0
    2.3801   -0.6918    0.2498 C   0  0  0  0  0  0  0  0  0  0  0  0
    1.3201    0.2302    0.0288 C   0  0  0  0  0  0  0  0  0  0  0  0
   -0.0958   -0.0766    0.0507 C   0  0  0  0  0  0  0  0  0  0  0  0
   -0.7134   -1.3655    0.2984 C   0  0  0  0  0  0  0  0  0  0  0  0
   -0.0706   -2.5191    0.5549 N   0  0  0  0  0  0  0  0  0  0  0  0
   -1.2062   -3.6961    0.7644 S   0  0  0  0  0  0  0  0  0  0  0  0
   -2.5821   -2.8191    0.5435 N   0  0  0  0  0  0  0  0  0  0  0  0
   -2.2257   -1.5470    0.2917 C   0  0  0  0  0  0  0  0  0  0  0  0
   -7.7729    0.0788   -0.2053 H   0  0  0  0  0  0  0  0  0  0  0  0
   -7.0105   -2.5210    0.3528 H   0  0  0  0  0  0  0  0  0  0  0  0
   -5.4223    1.4369   -0.4166 H   0  0  0  0  0  0  0  0  0  0  0  0
   -3.0164    1.6665   -0.3938 H   0  0  0  0  0  0  0  0  0  0  0  0
    0.9281    3.5326   -0.6634 H   0  0  0  0  0  0  0  0  0  0  0  0
    3.3226    2.9674   -0.4770 H   0  0  0  0  0  0  0  0  0  0  0  0
    5.7313    2.3610   -0.2817 H   0  0  0  0  0  0  0  0  0  0  0  0
    7.4463    0.6102    0.1292 H   0  0  0  0  0  0  0  0  0  0  0  0
    6.6745   -1.7207    0.5872 H   0  0  0  0  0  0  0  0  0  0  0  0
    2.1664   -1.7368    0.4590 H   0  0  0  0  0  0  0  0  0  0  0  0
  1  2  2  0
  2  3  1  0
  3  4  1  0
  4  5  2  0
  4  6  1  0
  6  7  2  0
  7  8  1  0
  8  9  2  0
  9 10  1  0
 10 11  2  0
 11 12  1  0
 12 13  2  0
 13 14  1  0
 14 15  2  0
 15 16  1  0
 16 17  2  0
 17 18  1  0
 18 19  2  0
 19 20  1  0
 20 21  2  0
 21 22  1  0
 22 23  2  0
 23 24  1  0
 24 25  1  0
 25 26  2  0
  5  1  1  0
 26  6  1  0
 21  8  1  0
 26 22  1  0
 20 11  1  0
 18 13  1  0
  1 27  1  0
  2 28  1  0
  5 29  1  0
  7 30  1  0
 10 31  1  0
 12 32  1  0
 14 33  1  0
 15 34  1  0
 16 35  1  0
 19 36  1  0
M  END
