
     RDKit          3D

 24 27  0  0  0  0  0  0  0  0999 V2000
   -4.7619    0.8223   -0.4513 C   0  0  0  0  0  0  0  0  0  0  0  0
   -4.9305   -0.1081    0.5441 C   0  0  0  0  0  0  0  0  0  0  0  0
   -3.7301   -0.5926    0.9500 O   0  0  0  0  0  0  0  0  0  0  0  0
   -2.7565    0.0295    0.2094 C   0  0  0  0  0  0  0  0  0  0  0  0
   -3.3657    0.9118   -0.6674 C   0  0  0  0  0  0  0  0  0  0  0  0
   -1.3569   -0.2412    0.3726 C   0  0  0  0  0  0  0  0  0  0  0  0
   -0.7799   -1.1299    1.2591 C   0  0  0  0  0  0  0  0  0  0  0  0
    0.6098   -1.0179    1.0197 C   0  0  0  0  0  0  0  0  0  0  0  0
    2.1176   -1.6597    1.5648 S   0  0  0  0  0  0  0  0  0  0  0  0
    2.9771   -0.6550    0.4307 C   0  0  0  0  0  0  0  0  0  0  0  0
    4.3657   -0.6002    0.2518 C   0  0  0  0  0  0  0  0  0  0  0  0
    4.8223    0.2790   -0.7148 C   0  0  0  0  0  0  0  0  0  0  0  0
    4.0305    1.0635   -1.4727 N   0  0  0  0  0  0  0  0  0  0  0  0
    2.6893    1.0064   -1.2954 C   0  0  0  0  0  0  0  0  0  0  0  0
    2.1318    0.1483   -0.3423 C   0  0  0  0  0  0  0  0  0  0  0  0
    0.7970   -0.1056    0.0418 C   0  0  0  0  0  0  0  0  0  0  0  0
   -0.3993    0.3939   -0.3804 O   0  0  0  0  0  0  0  0  0  0  0  0
   -5.5456    1.3676   -0.9578 H   0  0  0  0  0  0  0  0  0  0  0  0
   -5.7944   -0.5166    1.0500 H   0  0  0  0  0  0  0  0  0  0  0  0
   -2.8512    1.5438   -1.3786 H   0  0  0  0  0  0  0  0  0  0  0  0
   -1.2921   -1.7620    1.9700 H   0  0  0  0  0  0  0  0  0  0  0  0
    5.0459   -1.2092    0.8344 H   0  0  0  0  0  0  0  0  0  0  0  0
    5.8871    0.3777   -0.9118 H   0  0  0  0  0  0  0  0  0  0  0  0
    2.0898    1.6543   -1.9261 H   0  0  0  0  0  0  0  0  0  0  0  0
  1  2  2  0
  2  3  1  0
  3  4  1  0
  4  5  2  0
  4  6  1  0
  6  7  2  0
  7  8  1  0
  8  9  1  0
  9 10  1  0
 10 11  2  0
 11 12  1  0
 12 13  2  0
 13 14  1  0
 14 15  2  0
 15 16  1  0
 16 17  1  0
  5  1  1  0
 17  6  1  0
 16  8  2  0
 15 10  1  0
  1 18  1  0
  2 19  1  0
  5 20  1  0
  7 21  1  0
 11 22  1  0
 12 23  1  0
 14 24  1  0
M  END
