
     RDKit          3D

 43 49  0  0  0  0  0  0  0  0999 V2000
    7.6615    0.1988   -0.9383 C   0  0  0  0  0  0  0  0  0  0  0  0
    7.1842    1.2961   -1.6123 C   0  0  0  0  0  0  0  0  0  0  0  0
    5.8341    1.3701   -1.5003 O   0  0  0  0  0  0  0  0  0  0  0  0
    5.4236    0.2994   -0.7530 C   0  0  0  0  0  0  0  0  0  0  0  0
    6.5279   -0.4418   -0.3792 C   0  0  0  0  0  0  0  0  0  0  0  0
    3.9983    0.2144   -0.5282 C   0  0  0  0  0  0  0  0  0  0  0  0
    3.1304    1.3383   -0.4958 C   0  0  0  0  0  0  0  0  0  0  0  0
    1.7142    1.2682   -0.2510 C   0  0  0  0  0  0  0  0  0  0  0  0
    1.0085    0.0616   -0.0280 C   0  0  0  0  0  0  0  0  0  0  0  0
   -0.4194   -0.0100    0.2209 C   0  0  0  0  0  0  0  0  0  0  0  0
   -1.4401   -0.8432   -0.8826 S   0  0  0  0  0  0  0  0  0  0  0  0
   -2.8715   -0.4957    0.0111 C   0  0  0  0  0  0  0  0  0  0  0  0
   -4.1569   -0.9644   -0.4339 C   0  0  0  0  0  0  0  0  0  0  0  0
   -4.4456   -2.6178   -0.8557 S   0  0  0  0  0  0  0  0  0  0  0  0
   -6.1031   -2.3443   -1.2345 C   0  0  0  0  0  0  0  0  0  0  0  0
   -6.4232   -1.0317   -1.0424 C   0  0  0  0  0  0  0  0  0  0  0  0
   -7.9787   -0.1535   -1.2729 S   0  0  0  0  0  0  0  0  0  0  0  0
   -7.0811    1.2620   -0.7429 C   0  0  0  0  0  0  0  0  0  0  0  0
   -5.7324    1.0585   -0.4288 C   0  0  0  0  0  0  0  0  0  0  0  0
   -5.3268   -0.2944   -0.5948 C   0  0  0  0  0  0  0  0  0  0  0  0
   -2.5753    0.2731    1.1172 C   0  0  0  0  0  0  0  0  0  0  0  0
   -3.5084    0.7135    2.0136 N   0  0  0  0  0  0  0  0  0  0  0  0
   -2.9329    1.4401    3.0081 C   0  0  0  0  0  0  0  0  0  0  0  0
   -1.5669    1.7181    3.1143 C   0  0  0  0  0  0  0  0  0  0  0  0
   -0.6142    1.2999    2.2398 N   0  0  0  0  0  0  0  0  0  0  0  0
   -1.1615    0.5574    1.2327 C   0  0  0  0  0  0  0  0  0  0  0  0
    1.8708   -1.0390   -0.0607 C   0  0  0  0  0  0  0  0  0  0  0  0
    1.5751   -2.3639    0.1363 C   0  0  0  0  0  0  0  0  0  0  0  0
    2.7071   -3.1160   -0.0005 O   0  0  0  0  0  0  0  0  0  0  0  0
    3.7391   -2.2631   -0.2754 C   0  0  0  0  0  0  0  0  0  0  0  0
    3.2859   -0.9682   -0.2976 C   0  0  0  0  0  0  0  0  0  0  0  0
    8.6972   -0.0984   -0.8536 H   0  0  0  0  0  0  0  0  0  0  0  0
    7.6490    2.0842   -2.1879 H   0  0  0  0  0  0  0  0  0  0  0  0
    6.5272   -1.3289    0.2372 H   0  0  0  0  0  0  0  0  0  0  0  0
    3.5602    2.3292   -0.6550 H   0  0  0  0  0  0  0  0  0  0  0  0
    1.1605    2.2084   -0.2370 H   0  0  0  0  0  0  0  0  0  0  0  0
   -6.7589   -3.1340   -1.5741 H   0  0  0  0  0  0  0  0  0  0  0  0
   -7.6221    2.1970   -0.6920 H   0  0  0  0  0  0  0  0  0  0  0  0
   -5.0889    1.8615   -0.0904 H   0  0  0  0  0  0  0  0  0  0  0  0
   -3.6249    1.8144    3.7577 H   0  0  0  0  0  0  0  0  0  0  0  0
   -1.1940    2.3097    3.9460 H   0  0  0  0  0  0  0  0  0  0  0  0
    0.6769   -2.9222    0.3596 H   0  0  0  0  0  0  0  0  0  0  0  0
    4.6950   -2.7435   -0.4227 H   0  0  0  0  0  0  0  0  0  0  0  0
  1  2  2  0
  2  3  1  0
  3  4  1  0
  4  5  2  0
  4  6  1  0
  6  7  2  0
  7  8  1  0
  8  9  2  0
  9 10  1  0
 10 11  1  0
 11 12  1  0
 12 13  1  0
 13 14  1  0
 14 15  1  0
 15 16  2  0
 16 17  1  0
 17 18  1  0
 18 19  2  0
 19 20  1  0
 12 21  2  0
 21 22  1  0
 22 23  2  0
 23 24  1  0
 24 25  2  0
 25 26  1  0
  9 27  1  0
 27 28  2  0
 28 29  1  0
 29 30  1  0
 30 31  2  0
  5  1  1  0
 31  6  1  0
 26 10  2  0
 31 27  1  0
 20 13  2  0
 26 21  1  0
 20 16  1  0
  1 32  1  0
  2 33  1  0
  5 34  1  0
  7 35  1  0
  8 36  1  0
 15 37  1  0
 18 38  1  0
 19 39  1  0
 23 40  1  0
 24 41  1  0
 28 42  1  0
 30 43  1  0
M  END
