
     RDKit          3D

 42 48  0  0  0  0  0  0  0  0999 V2000
   -5.1126    3.1843   -0.4542 Si  0  0  0  0  0  4  0  0  0  0  0  0
   -5.6843    1.5110   -1.0247 C   0  0  0  0  0  0  0  0  0  0  0  0
   -4.6924    0.6040   -0.9402 C   0  0  0  0  0  0  0  0  0  0  0  0
   -4.9078   -0.8075   -1.1554 C   0  0  0  0  0  0  0  0  0  0  0  0
   -3.9275   -1.6816   -0.8857 C   0  0  0  0  0  0  0  0  0  0  0  0
   -2.6041   -1.2098   -0.4644 C   0  0  0  0  0  0  0  0  0  0  0  0
   -1.5630   -2.0880   -0.1639 C   0  0  0  0  0  0  0  0  0  0  0  0
   -1.5852   -3.4587   -0.1027 C   0  0  0  0  0  0  0  0  0  0  0  0
   -0.3475   -3.9286    0.2328 O   0  0  0  0  0  0  0  0  0  0  0  0
    0.4726   -2.8457    0.3795 C   0  0  0  0  0  0  0  0  0  0  0  0
   -0.2328   -1.6917    0.1460 C   0  0  0  0  0  0  0  0  0  0  0  0
    0.2235   -0.3713    0.1446 C   0  0  0  0  0  0  0  0  0  0  0  0
    1.5417    0.0282    0.3869 C   0  0  0  0  0  0  0  0  0  0  0  0
    2.5936   -0.7645    0.7315 O   0  0  0  0  0  0  0  0  0  0  0  0
    3.7077    0.0249    0.8724 C   0  0  0  0  0  0  0  0  0  0  0  0
    3.3461    1.3360    0.6022 C   0  0  0  0  0  0  0  0  0  0  0  0
    1.9619    1.3438    0.2900 C   0  0  0  0  0  0  0  0  0  0  0  0
    1.0266    2.3130   -0.0902 C   0  0  0  0  0  0  0  0  0  0  0  0
   -0.3091    1.9212   -0.3248 C   0  0  0  0  0  0  0  0  0  0  0  0
   -0.7940    0.5968   -0.1756 C   0  0  0  0  0  0  0  0  0  0  0  0
   -2.2021    0.1783   -0.3752 C   0  0  0  0  0  0  0  0  0  0  0  0
   -3.3706    1.1271   -0.4939 C   0  0  0  0  0  0  0  0  0  0  0  0
   -3.4366    2.4201   -0.1061 C   0  0  0  0  0  0  0  0  0  0  0  0
    4.9977   -0.5001    1.2367 C   0  0  0  0  0  0  0  0  0  0  0  0
    6.1803    0.1963    1.4067 C   0  0  0  0  0  0  0  0  0  0  0  0
    7.2696   -0.6505    1.7703 C   0  0  0  0  0  0  0  0  0  0  0  0
    6.8854   -1.9681    1.8670 C   0  0  0  0  0  0  0  0  0  0  0  0
    5.2248   -2.1774    1.5214 S   0  0  0  0  0  0  0  0  0  0  0  0
   -5.7928    3.6341    0.7839 H   0  0  0  0  0  0  0  0  0  0  0  0
   -5.0543    4.1793   -1.5520 H   0  0  0  0  0  0  0  0  0  0  0  0
   -6.7133    1.3287   -1.2915 H   0  0  0  0  0  0  0  0  0  0  0  0
   -5.8829   -1.1519   -1.4838 H   0  0  0  0  0  0  0  0  0  0  0  0
   -4.0986   -2.7433   -1.0175 H   0  0  0  0  0  0  0  0  0  0  0  0
   -2.3382   -4.2196   -0.2494 H   0  0  0  0  0  0  0  0  0  0  0  0
    1.4976   -3.0758    0.6359 H   0  0  0  0  0  0  0  0  0  0  0  0
    4.0055    2.1917    0.6208 H   0  0  0  0  0  0  0  0  0  0  0  0
    1.3200    3.3506   -0.2230 H   0  0  0  0  0  0  0  0  0  0  0  0
   -0.9651    2.7031   -0.6955 H   0  0  0  0  0  0  0  0  0  0  0  0
   -2.6913    3.0245    0.3786 H   0  0  0  0  0  0  0  0  0  0  0  0
    6.2719    1.2676    1.2784 H   0  0  0  0  0  0  0  0  0  0  0  0
    8.2815   -0.3093    1.9513 H   0  0  0  0  0  0  0  0  0  0  0  0
    7.4980   -2.8214    2.1240 H   0  0  0  0  0  0  0  0  0  0  0  0
  1  2  1  0
  2  3  2  0
  3  4  1  0
  4  5  2  0
  5  6  1  0
  6  7  1  0
  7  8  2  0
  8  9  1  0
  9 10  1  0
 10 11  2  0
 11 12  1  0
 12 13  2  0
 13 14  1  0
 14 15  1  0
 15 16  2  0
 16 17  1  0
 17 18  2  0
 18 19  1  0
 19 20  2  0
 20 21  1  0
 21 22  1  0
 22 23  2  0
 15 24  1  0
 24 25  2  0
 25 26  1  0
 26 27  2  0
 27 28  1  0
 23  1  1  0
 28 24  1  0
 22  3  1  0
 21  6  2  0
 11  7  1  0
 20 12  1  0
 17 13  1  0
  1 29  1  0
  1 30  1  0
  2 31  1  0
  4 32  1  0
  5 33  1  0
  8 34  1  0
 10 35  1  0
 16 36  1  0
 18 37  1  0
 19 38  1  0
 23 39  1  0
 25 40  1  0
 26 41  1  0
 27 42  1  0
M  END
