
     RDKit          3D

 45 51  0  0  0  0  0  0  0  0999 V2000
    7.3763   -0.4224   -0.8644 C   0  0  0  0  0  0  0  0  0  0  0  0
    7.2352    0.7581   -1.5520 C   0  0  0  0  0  0  0  0  0  0  0  0
    5.9408    1.1644   -1.5345 O   0  0  0  0  0  0  0  0  0  0  0  0
    5.2272    0.2370   -0.8260 C   0  0  0  0  0  0  0  0  0  0  0  0
    6.0826   -0.7603   -0.3955 C   0  0  0  0  0  0  0  0  0  0  0  0
    3.7994    0.4913   -0.6889 C   0  0  0  0  0  0  0  0  0  0  0  0
    3.1912    1.5984   -1.2376 C   0  0  0  0  0  0  0  0  0  0  0  0
    1.8697    1.8615   -1.1376 N   0  0  0  0  0  0  0  0  0  0  0  0
    1.0453    1.0151   -0.4690 C   0  0  0  0  0  0  0  0  0  0  0  0
    1.5601   -0.1363    0.1620 C   0  0  0  0  0  0  0  0  0  0  0  0
    2.9581   -0.3707    0.0171 C   0  0  0  0  0  0  0  0  0  0  0  0
    0.6957   -0.9616    0.9425 C   0  0  0  0  0  0  0  0  0  0  0  0
    1.1668   -2.0555    1.7220 C   0  0  0  0  0  0  0  0  0  0  0  0
    0.3435   -2.7746    2.5859 C   0  0  0  0  0  0  0  0  0  0  0  0
   -0.9753   -2.4000    2.7212 C   0  0  0  0  0  0  0  0  0  0  0  0
   -1.4669   -1.3517    1.9448 C   0  0  0  0  0  0  0  0  0  0  0  0
   -0.6868   -0.6582    0.9858 C   0  0  0  0  0  0  0  0  0  0  0  0
   -1.2327    0.3810    0.1511 C   0  0  0  0  0  0  0  0  0  0  0  0
   -0.3270    1.2895   -0.4323 C   0  0  0  0  0  0  0  0  0  0  0  0
   -0.7550    2.4490   -0.9830 N   0  0  0  0  0  0  0  0  0  0  0  0
   -2.0667    2.7507   -1.0312 C   0  0  0  0  0  0  0  0  0  0  0  0
   -3.0807    1.8964   -0.6649 C   0  0  0  0  0  0  0  0  0  0  0  0
   -4.4557    2.3068   -0.8704 C   0  0  0  0  0  0  0  0  0  0  0  0
   -5.5803    1.4865   -0.6700 C   0  0  0  0  0  0  0  0  0  0  0  0
   -5.1638    0.2181   -0.3195 C   0  0  0  0  0  0  0  0  0  0  0  0
   -5.9974   -0.8646   -0.2089 C   0  0  0  0  0  0  0  0  0  0  0  0
   -5.1945   -1.9579    0.0129 N   0  0  0  0  0  0  0  0  0  0  0  0
   -3.8700   -1.5742    0.0324 C   0  0  0  0  0  0  0  0  0  0  0  0
   -3.8161   -0.2022   -0.0793 C   0  0  0  0  0  0  0  0  0  0  0  0
   -2.6503    0.6338   -0.1421 C   0  0  0  0  0  0  0  0  0  0  0  0
    8.2964   -0.9707   -0.7195 H   0  0  0  0  0  0  0  0  0  0  0  0
    7.9204    1.4039   -2.0836 H   0  0  0  0  0  0  0  0  0  0  0  0
    5.8127   -1.6297    0.1867 H   0  0  0  0  0  0  0  0  0  0  0  0
    3.7515    2.3406   -1.8001 H   0  0  0  0  0  0  0  0  0  0  0  0
    3.4090   -1.2480    0.4684 H   0  0  0  0  0  0  0  0  0  0  0  0
    2.2106   -2.3547    1.7020 H   0  0  0  0  0  0  0  0  0  0  0  0
    0.7484   -3.5908    3.1778 H   0  0  0  0  0  0  0  0  0  0  0  0
   -1.6242   -2.9047    3.4315 H   0  0  0  0  0  0  0  0  0  0  0  0
   -2.4935   -1.0454    2.1368 H   0  0  0  0  0  0  0  0  0  0  0  0
   -2.2720    3.7332   -1.4495 H   0  0  0  0  0  0  0  0  0  0  0  0
   -4.6442    3.3172   -1.2400 H   0  0  0  0  0  0  0  0  0  0  0  0
   -6.5963    1.7994   -0.8593 H   0  0  0  0  0  0  0  0  0  0  0  0
   -7.0683   -0.9746   -0.3126 H   0  0  0  0  0  0  0  0  0  0  0  0
   -5.5210   -2.9128    0.0867 H   0  0  0  0  0  0  0  0  0  0  0  0
   -3.1021   -2.3316    0.1041 H   0  0  0  0  0  0  0  0  0  0  0  0
  1  2  2  0
  2  3  1  0
  3  4  1  0
  4  5  2  0
  4  6  1  0
  6  7  2  0
  7  8  1  0
  8  9  2  0
  9 10  1  0
 10 11  2  0
 10 12  1  0
 12 13  2  0
 13 14  1  0
 14 15  2  0
 15 16  1  0
 16 17  2  0
 17 18  1  0
 18 19  2  0
 19 20  1  0
 20 21  2  0
 21 22  1  0
 22 23  1  0
 23 24  2  0
 24 25  1  0
 25 26  2  0
 26 27  1  0
 27 28  1  0
 28 29  2  0
 29 30  1  0
  5  1  1  0
 11  6  1  0
 17 12  1  0
 30 18  1  0
 19  9  1  0
 30 22  2  0
 29 25  1  0
  1 31  1  0
  2 32  1  0
  5 33  1  0
  7 34  1  0
 11 35  1  0
 13 36  1  0
 14 37  1  0
 15 38  1  0
 16 39  1  0
 21 40  1  0
 23 41  1  0
 24 42  1  0
 26 43  1  0
 27 44  1  0
 28 45  1  0
M  END
