
     RDKit          3D

 36 41  0  0  0  0  0  0  0  0999 V2000
   -7.0439    0.9562    0.7968 C   0  0  0  0  0  0  0  0  0  0  0  0
   -6.4810    1.3321    1.9916 C   0  0  0  0  0  0  0  0  0  0  0  0
   -5.1310    1.2153    1.9380 O   0  0  0  0  0  0  0  0  0  0  0  0
   -4.8032    0.7571    0.6887 C   0  0  0  0  0  0  0  0  0  0  0  0
   -5.9653    0.5894   -0.0437 C   0  0  0  0  0  0  0  0  0  0  0  0
   -3.3882    0.5586    0.4395 C   0  0  0  0  0  0  0  0  0  0  0  0
   -2.4989    0.8026    1.4578 N   0  0  0  0  0  0  0  0  0  0  0  0
   -1.1526    0.6225    1.2865 C   0  0  0  0  0  0  0  0  0  0  0  0
   -0.5053    0.1990    0.1276 C   0  0  0  0  0  0  0  0  0  0  0  0
    0.9250    0.0082    0.0126 C   0  0  0  0  0  0  0  0  0  0  0  0
    1.9037    1.2791   -0.5862 S   0  0  0  0  0  0  0  0  0  0  0  0
    3.3654    0.3591   -0.4608 C   0  0  0  0  0  0  0  0  0  0  0  0
    4.6443    0.8964   -0.8684 C   0  0  0  0  0  0  0  0  0  0  0  0
    5.7855    0.2011   -1.2406 C   0  0  0  0  0  0  0  0  0  0  0  0
    6.8870    0.9623   -1.5914 N   0  0  0  0  0  0  0  0  0  0  0  0
    6.5795    2.2338   -1.4771 C   0  0  0  0  0  0  0  0  0  0  0  0
    4.9886    2.5844   -0.9544 S   0  0  0  0  0  0  0  0  0  0  0  0
    3.0892   -0.8985    0.0460 C   0  0  0  0  0  0  0  0  0  0  0  0
    4.0375   -1.8556    0.2775 N   0  0  0  0  0  0  0  0  0  0  0  0
    3.4839   -2.9867    0.7915 C   0  0  0  0  0  0  0  0  0  0  0  0
    2.1232   -3.1698    1.0590 C   0  0  0  0  0  0  0  0  0  0  0  0
    1.1545   -2.2400    0.8448 N   0  0  0  0  0  0  0  0  0  0  0  0
    1.6837   -1.0934    0.3252 C   0  0  0  0  0  0  0  0  0  0  0  0
   -1.3734   -0.0668   -0.9572 C   0  0  0  0  0  0  0  0  0  0  0  0
   -1.0198   -0.4863   -2.1863 N   0  0  0  0  0  0  0  0  0  0  0  0
   -2.4149   -0.6455   -3.0616 S   0  0  0  0  0  0  0  0  0  0  0  0
   -3.5382   -0.1743   -1.9386 N   0  0  0  0  0  0  0  0  0  0  0  0
   -2.8694    0.1181   -0.8069 C   0  0  0  0  0  0  0  0  0  0  0  0
   -8.0990    0.9439    0.5628 H   0  0  0  0  0  0  0  0  0  0  0  0
   -6.8800    1.6834    2.9323 H   0  0  0  0  0  0  0  0  0  0  0  0
   -6.0338    0.2312   -1.0635 H   0  0  0  0  0  0  0  0  0  0  0  0
   -0.5730    0.8436    2.1833 H   0  0  0  0  0  0  0  0  0  0  0  0
    5.8732   -0.8794   -1.2859 H   0  0  0  0  0  0  0  0  0  0  0  0
    7.2883    3.0202   -1.6995 H   0  0  0  0  0  0  0  0  0  0  0  0
    4.1899   -3.7873    0.9962 H   0  0  0  0  0  0  0  0  0  0  0  0
    1.7685   -4.1140    1.4646 H   0  0  0  0  0  0  0  0  0  0  0  0
  1  2  2  0
  2  3  1  0
  3  4  1  0
  4  5  2  0
  4  6  1  0
  6  7  2  0
  7  8  1  0
  8  9  2  0
  9 10  1  0
 10 11  1  0
 11 12  1  0
 12 13  1  0
 13 14  2  0
 14 15  1  0
 15 16  2  0
 16 17  1  0
 12 18  2  0
 18 19  1  0
 19 20  2  0
 20 21  1  0
 21 22  2  0
 22 23  1  0
  9 24  1  0
 24 25  2  0
 25 26  1  0
 26 27  1  0
 27 28  2  0
  5  1  1  0
 28  6  1  0
 23 10  2  0
 28 24  1  0
 17 13  1  0
 23 18  1  0
  1 29  1  0
  2 30  1  0
  5 31  1  0
  8 32  1  0
 14 33  1  0
 16 34  1  0
 20 35  1  0
 21 36  1  0
M  END
