
     RDKit          3D

 38 43  0  0  0  0  0  0  0  0999 V2000
   -6.7935   -1.1226   -0.1254 C   0  0  0  0  0  0  0  0  0  0  0  0
   -7.1208    0.0559    0.5004 C   0  0  0  0  0  0  0  0  0  0  0  0
   -5.7419    0.9961    0.8537 S   0  0  0  0  0  0  0  0  0  0  0  0
   -4.6652   -0.1663    0.1693 C   0  0  0  0  0  0  0  0  0  0  0  0
   -5.3854   -1.2497   -0.3151 C   0  0  0  0  0  0  0  0  0  0  0  0
   -3.2072    0.0721    0.1602 C   0  0  0  0  0  0  0  0  0  0  0  0
   -2.3150   -0.8407   -0.3815 C   0  0  0  0  0  0  0  0  0  0  0  0
   -0.9363   -0.5341   -0.3490 C   0  0  0  0  0  0  0  0  0  0  0  0
    0.1180   -1.3248   -0.8433 C   0  0  0  0  0  0  0  0  0  0  0  0
    0.0147   -2.5509   -1.4551 C   0  0  0  0  0  0  0  0  0  0  0  0
    1.2923   -2.9534   -1.7727 N   0  0  0  0  0  0  0  0  0  0  0  0
    2.1987   -1.9996   -1.3704 C   0  0  0  0  0  0  0  0  0  0  0  0
    1.4978   -0.9707   -0.7869 C   0  0  0  0  0  0  0  0  0  0  0  0
    2.0111    0.2305   -0.2242 C   0  0  0  0  0  0  0  0  0  0  0  0
    3.3729    0.6356   -0.1404 C   0  0  0  0  0  0  0  0  0  0  0  0
    4.4070   -0.1103   -0.6102 N   0  0  0  0  0  0  0  0  0  0  0  0
    5.6727    0.3491   -0.4902 C   0  0  0  0  0  0  0  0  0  0  0  0
    5.9967    1.5549    0.0916 C   0  0  0  0  0  0  0  0  0  0  0  0
    4.9562    2.3306    0.5771 C   0  0  0  0  0  0  0  0  0  0  0  0
    3.6329    1.8723    0.4628 C   0  0  0  0  0  0  0  0  0  0  0  0
    2.5586    2.6132    0.9337 C   0  0  0  0  0  0  0  0  0  0  0  0
    1.2656    2.2315    0.8556 N   0  0  0  0  0  0  0  0  0  0  0  0
    0.9534    1.0543    0.2872 C   0  0  0  0  0  0  0  0  0  0  0  0
   -0.4413    0.6752    0.2194 C   0  0  0  0  0  0  0  0  0  0  0  0
   -1.4480    1.4977    0.7255 C   0  0  0  0  0  0  0  0  0  0  0  0
   -2.7847    1.2335    0.7108 N   0  0  0  0  0  0  0  0  0  0  0  0
   -7.5260   -1.8587   -0.4329 H   0  0  0  0  0  0  0  0  0  0  0  0
   -8.1048    0.4143    0.7695 H   0  0  0  0  0  0  0  0  0  0  0  0
   -4.9319   -2.1096   -0.7909 H   0  0  0  0  0  0  0  0  0  0  0  0
   -2.6538   -1.7692   -0.8215 H   0  0  0  0  0  0  0  0  0  0  0  0
   -0.8301   -3.1801   -1.6985 H   0  0  0  0  0  0  0  0  0  0  0  0
    1.5335   -3.8214   -2.2338 H   0  0  0  0  0  0  0  0  0  0  0  0
    3.2563   -2.1513   -1.5414 H   0  0  0  0  0  0  0  0  0  0  0  0
    6.4410   -0.3063   -0.8906 H   0  0  0  0  0  0  0  0  0  0  0  0
    7.0276    1.8809    0.1649 H   0  0  0  0  0  0  0  0  0  0  0  0
    5.1759    3.2884    1.0426 H   0  0  0  0  0  0  0  0  0  0  0  0
    2.7070    3.5798    1.4100 H   0  0  0  0  0  0  0  0  0  0  0  0
   -1.2043    2.4533    1.1879 H   0  0  0  0  0  0  0  0  0  0  0  0
  1  2  2  0
  2  3  1  0
  3  4  1  0
  4  5  2  0
  4  6  1  0
  6  7  2  0
  7  8  1  0
  8  9  1  0
  9 10  2  0
 10 11  1  0
 11 12  1  0
 12 13  2  0
 13 14  1  0
 14 15  2  0
 15 16  1  0
 16 17  2  0
 17 18  1  0
 18 19  2  0
 19 20  1  0
 20 21  2  0
 21 22  1  0
 22 23  2  0
 23 24  1  0
 24 25  1  0
 25 26  2  0
  5  1  1  0
 26  6  1  0
 24  8  2  0
 13  9  1  0
 23 14  1  0
 20 15  1  0
  1 27  1  0
  2 28  1  0
  5 29  1  0
  7 30  1  0
 10 31  1  0
 11 32  1  0
 12 33  1  0
 17 34  1  0
 18 35  1  0
 19 36  1  0
 21 37  1  0
 25 38  1  0
M  END
