
     RDKit          3D

 41 47  0  0  0  0  0  0  0  0999 V2000
   -5.0421    3.0095    0.1710 Si  0  0  0  0  0  4  0  0  0  0  0  0
   -5.6477    1.2937   -0.2051 C   0  0  0  0  0  0  0  0  0  0  0  0
   -4.6259    0.4179   -0.2550 C   0  0  0  0  0  0  0  0  0  0  0  0
   -4.8274   -1.0082   -0.3586 C   0  0  0  0  0  0  0  0  0  0  0  0
   -3.7853   -1.8415   -0.2261 C   0  0  0  0  0  0  0  0  0  0  0  0
   -2.4253   -1.3144   -0.0720 C   0  0  0  0  0  0  0  0  0  0  0  0
   -1.3177   -2.1484    0.0801 C   0  0  0  0  0  0  0  0  0  0  0  0
   -1.2817   -3.5140    0.2115 C   0  0  0  0  0  0  0  0  0  0  0  0
    0.0114   -3.9336    0.3428 O   0  0  0  0  0  0  0  0  0  0  0  0
    0.8066   -2.8241    0.2871 C   0  0  0  0  0  0  0  0  0  0  0  0
    0.0318   -1.7026    0.1273 C   0  0  0  0  0  0  0  0  0  0  0  0
    0.4350   -0.3732   -0.0205 C   0  0  0  0  0  0  0  0  0  0  0  0
    1.7607    0.0722   -0.0377 C   0  0  0  0  0  0  0  0  0  0  0  0
    2.8845   -0.6735    0.1518 O   0  0  0  0  0  0  0  0  0  0  0  0
    3.9767    0.1509    0.0522 C   0  0  0  0  0  0  0  0  0  0  0  0
    3.5287    1.4358   -0.2130 C   0  0  0  0  0  0  0  0  0  0  0  0
    2.1113    1.3909   -0.2727 C   0  0  0  0  0  0  0  0  0  0  0  0
    1.0906    2.3139   -0.5267 C   0  0  0  0  0  0  0  0  0  0  0  0
   -0.2512    1.8762   -0.4991 C   0  0  0  0  0  0  0  0  0  0  0  0
   -0.6558    0.5501   -0.2006 C   0  0  0  0  0  0  0  0  0  0  0  0
   -2.0618    0.0862   -0.1244 C   0  0  0  0  0  0  0  0  0  0  0  0
   -3.2647    0.9975   -0.0785 C   0  0  0  0  0  0  0  0  0  0  0  0
   -3.3054    2.3077    0.2508 C   0  0  0  0  0  0  0  0  0  0  0  0
    5.3233   -0.3204    0.2054 C   0  0  0  0  0  0  0  0  0  0  0  0
    6.5052    0.3935    0.1311 C   0  0  0  0  0  0  0  0  0  0  0  0
    7.6684   -0.3308    0.3220 N   0  0  0  0  0  0  0  0  0  0  0  0
    7.3562   -1.5888    0.5397 C   0  0  0  0  0  0  0  0  0  0  0  0
    5.6857   -1.9689    0.5283 S   0  0  0  0  0  0  0  0  0  0  0  0
   -5.5065    3.5086    1.4874 H   0  0  0  0  0  0  0  0  0  0  0  0
   -5.2131    3.9443   -0.9672 H   0  0  0  0  0  0  0  0  0  0  0  0
   -6.7009    1.0714   -0.2743 H   0  0  0  0  0  0  0  0  0  0  0  0
   -5.8329   -1.3942   -0.4900 H   0  0  0  0  0  0  0  0  0  0  0  0
   -3.9407   -2.9127   -0.2730 H   0  0  0  0  0  0  0  0  0  0  0  0
   -2.0222   -4.3003    0.2393 H   0  0  0  0  0  0  0  0  0  0  0  0
    1.8678   -3.0145    0.3671 H   0  0  0  0  0  0  0  0  0  0  0  0
    4.1495    2.3090   -0.3549 H   0  0  0  0  0  0  0  0  0  0  0  0
    1.3193    3.3500   -0.7606 H   0  0  0  0  0  0  0  0  0  0  0  0
   -0.9892    2.6199   -0.7844 H   0  0  0  0  0  0  0  0  0  0  0  0
   -2.5075    2.9565    0.5641 H   0  0  0  0  0  0  0  0  0  0  0  0
    6.5853    1.4564   -0.0616 H   0  0  0  0  0  0  0  0  0  0  0  0
    8.1070   -2.3479    0.7169 H   0  0  0  0  0  0  0  0  0  0  0  0
  1  2  1  0
  2  3  2  0
  3  4  1  0
  4  5  2  0
  5  6  1  0
  6  7  1  0
  7  8  2  0
  8  9  1  0
  9 10  1  0
 10 11  2  0
 11 12  1  0
 12 13  2  0
 13 14  1  0
 14 15  1  0
 15 16  2  0
 16 17  1  0
 17 18  2  0
 18 19  1  0
 19 20  2  0
 20 21  1  0
 21 22  1  0
 22 23  2  0
 15 24  1  0
 24 25  2  0
 25 26  1  0
 26 27  2  0
 27 28  1  0
 23  1  1  0
 28 24  1  0
 22  3  1  0
 21  6  2  0
 11  7  1  0
 20 12  1  0
 17 13  1  0
  1 29  1  0
  1 30  1  0
  2 31  1  0
  4 32  1  0
  5 33  1  0
  8 34  1  0
 10 35  1  0
 16 36  1  0
 18 37  1  0
 19 38  1  0
 23 39  1  0
 25 40  1  0
 27 41  1  0
M  END
