
     RDKit          3D

 38 43  0  0  0  0  0  0  0  0999 V2000
    6.2111   -0.7053   -0.2970 C   0  0  0  0  0  0  0  0  0  0  0  0
    5.8637   -1.9374    0.1961 C   0  0  0  0  0  0  0  0  0  0  0  0
    4.1806   -2.0840    0.4029 S   0  0  0  0  0  0  0  0  0  0  0  0
    3.8637   -0.4796   -0.1697 C   0  0  0  0  0  0  0  0  0  0  0  0
    5.0690    0.1241   -0.5047 C   0  0  0  0  0  0  0  0  0  0  0  0
    2.4745    0.0353   -0.2372 C   0  0  0  0  0  0  0  0  0  0  0  0
    1.3266   -0.7040    0.1442 C   0  0  0  0  0  0  0  0  0  0  0  0
   -0.0597   -0.2980    0.1173 C   0  0  0  0  0  0  0  0  0  0  0  0
   -1.1063   -1.1888    0.5463 C   0  0  0  0  0  0  0  0  0  0  0  0
   -0.8505   -2.5125    1.0199 C   0  0  0  0  0  0  0  0  0  0  0  0
   -1.8462   -3.3937    1.4407 C   0  0  0  0  0  0  0  0  0  0  0  0
   -3.1575   -2.9865    1.4065 C   0  0  0  0  0  0  0  0  0  0  0  0
   -3.4542   -1.7039    0.9520 C   0  0  0  0  0  0  0  0  0  0  0  0
   -2.4673   -0.7723    0.5131 C   0  0  0  0  0  0  0  0  0  0  0  0
   -2.8137    0.5410    0.0516 C   0  0  0  0  0  0  0  0  0  0  0  0
   -4.1653    0.9967    0.0029 C   0  0  0  0  0  0  0  0  0  0  0  0
   -4.5363    2.2638   -0.4391 C   0  0  0  0  0  0  0  0  0  0  0  0
   -3.5584    3.1340   -0.8542 C   0  0  0  0  0  0  0  0  0  0  0  0
   -2.2261    2.7235   -0.8207 C   0  0  0  0  0  0  0  0  0  0  0  0
   -1.7986    1.4368   -0.3765 C   0  0  0  0  0  0  0  0  0  0  0  0
   -0.4113    1.0102   -0.3419 C   0  0  0  0  0  0  0  0  0  0  0  0
    0.7273    1.8328   -0.7538 C   0  0  0  0  0  0  0  0  0  0  0  0
    0.6735    3.0945   -1.2225 N   0  0  0  0  0  0  0  0  0  0  0  0
    2.1983    3.6049   -1.5521 S   0  0  0  0  0  0  0  0  0  0  0  0
    3.0433    2.2633   -1.1250 N   0  0  0  0  0  0  0  0  0  0  0  0
    2.1655    1.3365   -0.6976 C   0  0  0  0  0  0  0  0  0  0  0  0
    7.2318   -0.4063   -0.5012 H   0  0  0  0  0  0  0  0  0  0  0  0
    6.5198   -2.7600    0.4452 H   0  0  0  0  0  0  0  0  0  0  0  0
    5.1571    1.1315   -0.8902 H   0  0  0  0  0  0  0  0  0  0  0  0
    1.5389   -1.7069    0.5016 H   0  0  0  0  0  0  0  0  0  0  0  0
    0.1561   -2.9144    1.0796 H   0  0  0  0  0  0  0  0  0  0  0  0
   -1.5856   -4.3887    1.7905 H   0  0  0  0  0  0  0  0  0  0  0  0
   -3.9528   -3.6527    1.7285 H   0  0  0  0  0  0  0  0  0  0  0  0
   -4.5100   -1.4505    0.9525 H   0  0  0  0  0  0  0  0  0  0  0  0
   -4.9879    0.3613    0.3158 H   0  0  0  0  0  0  0  0  0  0  0  0
   -5.5818    2.5573   -0.4547 H   0  0  0  0  0  0  0  0  0  0  0  0
   -3.8141    4.1299   -1.2048 H   0  0  0  0  0  0  0  0  0  0  0  0
   -1.5172    3.4683   -1.1643 H   0  0  0  0  0  0  0  0  0  0  0  0
  1  2  2  0
  2  3  1  0
  3  4  1  0
  4  5  2  0
  4  6  1  0
  6  7  2  0
  7  8  1  0
  8  9  2  0
  9 10  1  0
 10 11  2  0
 11 12  1  0
 12 13  2  0
 13 14  1  0
 14 15  2  0
 15 16  1  0
 16 17  2  0
 17 18  1  0
 18 19  2  0
 19 20  1  0
 20 21  2  0
 21 22  1  0
 22 23  2  0
 23 24  1  0
 24 25  1  0
 25 26  2  0
  5  1  1  0
 26  6  1  0
 21  8  1  0
 26 22  1  0
 14  9  1  0
 20 15  1  0
  1 27  1  0
  2 28  1  0
  5 29  1  0
  7 30  1  0
 10 31  1  0
 11 32  1  0
 12 33  1  0
 13 34  1  0
 16 35  1  0
 17 36  1  0
 18 37  1  0
 19 38  1  0
M  END
