
     RDKit          3D

 37 43  0  0  0  0  0  0  0  0999 V2000
    6.4454   -0.0024    0.2094 C   0  0  0  0  0  0  0  0  0  0  0  0
    6.2884    1.2302   -0.3807 C   0  0  0  0  0  0  0  0  0  0  0  0
    4.6425    1.6165   -0.6262 S   0  0  0  0  0  0  0  0  0  0  0  0
    4.1143    0.1312    0.0576 C   0  0  0  0  0  0  0  0  0  0  0  0
    5.1920   -0.6348    0.4616 C   0  0  0  0  0  0  0  0  0  0  0  0
    2.7195   -0.2075    0.1653 C   0  0  0  0  0  0  0  0  0  0  0  0
    2.1227   -1.3490    0.6836 C   0  0  0  0  0  0  0  0  0  0  0  0
    0.7541   -1.1445    0.5348 C   0  0  0  0  0  0  0  0  0  0  0  0
   -0.3454   -1.9643    0.8816 C   0  0  0  0  0  0  0  0  0  0  0  0
   -0.3760   -3.1908    1.4617 C   0  0  0  0  0  0  0  0  0  0  0  0
   -1.6938   -3.5473    1.5807 O   0  0  0  0  0  0  0  0  0  0  0  0
   -2.4505   -2.5204    1.0653 C   0  0  0  0  0  0  0  0  0  0  0  0
   -1.6478   -1.4967    0.6106 C   0  0  0  0  0  0  0  0  0  0  0  0
   -2.0101   -0.2771    0.0189 C   0  0  0  0  0  0  0  0  0  0  0  0
   -3.3053    0.2026   -0.2576 C   0  0  0  0  0  0  0  0  0  0  0  0
   -4.5749   -0.3075   -0.0640 N   0  0  0  0  0  0  0  0  0  0  0  0
   -5.5325    0.5748   -0.5185 C   0  0  0  0  0  0  0  0  0  0  0  0
   -4.8993    1.6894   -1.0227 C   0  0  0  0  0  0  0  0  0  0  0  0
   -3.5370    1.4340   -0.8500 C   0  0  0  0  0  0  0  0  0  0  0  0
   -2.4409    2.2795   -1.2091 C   0  0  0  0  0  0  0  0  0  0  0  0
   -2.6075    3.4643   -1.7769 N   0  0  0  0  0  0  0  0  0  0  0  0
   -1.0315    3.9960   -1.9692 S   0  0  0  0  0  0  0  0  0  0  0  0
   -0.1842    2.7020   -1.3238 N   0  0  0  0  0  0  0  0  0  0  0  0
   -1.1023    1.7897   -0.9262 C   0  0  0  0  0  0  0  0  0  0  0  0
   -0.8537    0.5283   -0.3190 C   0  0  0  0  0  0  0  0  0  0  0  0
    0.4650    0.0712   -0.0523 C   0  0  0  0  0  0  0  0  0  0  0  0
    1.7070    0.6319   -0.2710 N   0  0  0  0  0  0  0  0  0  0  0  0
    7.4103   -0.4316    0.4495 H   0  0  0  0  0  0  0  0  0  0  0  0
    7.0610    1.9248   -0.6806 H   0  0  0  0  0  0  0  0  0  0  0  0
    5.0944   -1.6108    0.9204 H   0  0  0  0  0  0  0  0  0  0  0  0
    2.6313   -2.2034    1.1078 H   0  0  0  0  0  0  0  0  0  0  0  0
    0.3485   -3.9035    1.8269 H   0  0  0  0  0  0  0  0  0  0  0  0
   -3.5118   -2.7040    1.1120 H   0  0  0  0  0  0  0  0  0  0  0  0
   -4.7873   -1.2016    0.3517 H   0  0  0  0  0  0  0  0  0  0  0  0
   -6.5833    0.3276   -0.4412 H   0  0  0  0  0  0  0  0  0  0  0  0
   -5.3712    2.5627   -1.4545 H   0  0  0  0  0  0  0  0  0  0  0  0
    1.8499    1.5400   -0.6959 H   0  0  0  0  0  0  0  0  0  0  0  0
  1  2  2  0
  2  3  1  0
  3  4  1  0
  4  5  2  0
  4  6  1  0
  6  7  2  0
  7  8  1  0
  8  9  1  0
  9 10  2  0
 10 11  1  0
 11 12  1  0
 12 13  2  0
 13 14  1  0
 14 15  1  0
 15 16  1  0
 16 17  1  0
 17 18  2  0
 18 19  1  0
 19 20  1  0
 20 21  2  0
 21 22  1  0
 22 23  1  0
 23 24  2  0
 24 25  1  0
 25 26  1  0
 26 27  1  0
  5  1  1  0
 27  6  1  0
 26  8  2  0
 13  9  1  0
 25 14  2  0
 19 15  2  0
 24 20  1  0
  1 28  1  0
  2 29  1  0
  5 30  1  0
  7 31  1  0
 10 32  1  0
 12 33  1  0
 16 34  1  0
 17 35  1  0
 18 36  1  0
 27 37  1  0
M  END
