
     RDKit          3D

 38 43  0  0  0  0  0  0  0  0999 V2000
    3.7779    3.5280    3.8036 C   0  0  0  0  0  0  0  0  0  0  0  0
    4.8526    3.1112    3.0510 C   0  0  0  0  0  0  0  0  0  0  0  0
    4.4023    1.9556    1.8737 S   0  0  0  0  0  0  0  0  0  0  0  0
    2.7611    1.9964    2.3661 C   0  0  0  0  0  0  0  0  0  0  0  0
    2.5692    2.8854    3.4065 C   0  0  0  0  0  0  0  0  0  0  0  0
    1.7873    1.1560    1.6903 C   0  0  0  0  0  0  0  0  0  0  0  0
    1.4260    1.3149    0.3300 C   0  0  0  0  0  0  0  0  0  0  0  0
    0.4503    0.5192   -0.3617 C   0  0  0  0  0  0  0  0  0  0  0  0
    0.1766    0.7750   -1.7155 C   0  0  0  0  0  0  0  0  0  0  0  0
   -0.7688    0.0321   -2.4474 C   0  0  0  0  0  0  0  0  0  0  0  0
   -1.0208    0.3103   -3.7969 C   0  0  0  0  0  0  0  0  0  0  0  0
   -1.9601   -0.4248   -4.5315 C   0  0  0  0  0  0  0  0  0  0  0  0
   -2.6696   -1.4666   -3.9075 C   0  0  0  0  0  0  0  0  0  0  0  0
   -3.6633   -2.3806   -4.3548 C   0  0  0  0  0  0  0  0  0  0  0  0
   -3.9969   -3.1881   -3.2935 C   0  0  0  0  0  0  0  0  0  0  0  0
   -3.2426   -2.7979   -2.2197 N   0  0  0  0  0  0  0  0  0  0  0  0
   -2.4188   -1.7450   -2.5618 C   0  0  0  0  0  0  0  0  0  0  0  0
   -1.4710   -1.0111   -1.8004 C   0  0  0  0  0  0  0  0  0  0  0  0
   -1.2254   -1.2985   -0.4457 C   0  0  0  0  0  0  0  0  0  0  0  0
   -0.2713   -0.5399    0.2737 C   0  0  0  0  0  0  0  0  0  0  0  0
    0.0955   -0.7009    1.6427 C   0  0  0  0  0  0  0  0  0  0  0  0
   -0.4424   -1.6502    2.4817 C   0  0  0  0  0  0  0  0  0  0  0  0
    0.2370   -1.5738    4.0566 S   0  0  0  0  0  0  0  0  0  0  0  0
    1.2628   -0.2673    3.6268 C   0  0  0  0  0  0  0  0  0  0  0  0
    1.0833    0.1162    2.3168 C   0  0  0  0  0  0  0  0  0  0  0  0
    3.8539    4.2595    4.5988 H   0  0  0  0  0  0  0  0  0  0  0  0
    5.8827    3.4300    3.1324 H   0  0  0  0  0  0  0  0  0  0  0  0
    1.6028    3.0688    3.8614 H   0  0  0  0  0  0  0  0  0  0  0  0
    1.9259    2.1097   -0.2284 H   0  0  0  0  0  0  0  0  0  0  0  0
    0.7143    1.5767   -2.2211 H   0  0  0  0  0  0  0  0  0  0  0  0
   -0.4840    1.1112   -4.3015 H   0  0  0  0  0  0  0  0  0  0  0  0
   -2.1375   -0.1897   -5.5770 H   0  0  0  0  0  0  0  0  0  0  0  0
   -4.0862   -2.4379   -5.3491 H   0  0  0  0  0  0  0  0  0  0  0  0
   -4.7027   -4.0035   -3.2099 H   0  0  0  0  0  0  0  0  0  0  0  0
   -3.2815   -3.2205   -1.3035 H   0  0  0  0  0  0  0  0  0  0  0  0
   -1.7629   -2.0981    0.0501 H   0  0  0  0  0  0  0  0  0  0  0  0
   -1.1947   -2.3975    2.2768 H   0  0  0  0  0  0  0  0  0  0  0  0
    1.9391    0.1357    4.3681 H   0  0  0  0  0  0  0  0  0  0  0  0
  1  2  2  0
  2  3  1  0
  3  4  1  0
  4  5  2  0
  4  6  1  0
  6  7  2  0
  7  8  1  0
  8  9  2  0
  9 10  1  0
 10 11  2  0
 11 12  1  0
 12 13  2  0
 13 14  1  0
 14 15  2  0
 15 16  1  0
 16 17  1  0
 17 18  2  0
 18 19  1  0
 19 20  2  0
 20 21  1  0
 21 22  2  0
 22 23  1  0
 23 24  1  0
 24 25  2  0
  5  1  1  0
 25  6  1  0
 20  8  1  0
 25 21  1  0
 18 10  1  0
 17 13  1  0
  1 26  1  0
  2 27  1  0
  5 28  1  0
  7 29  1  0
  9 30  1  0
 11 31  1  0
 12 32  1  0
 14 33  1  0
 15 34  1  0
 16 35  1  0
 19 36  1  0
 22 37  1  0
 24 38  1  0
M  END
