
     RDKit          3D

 31 36  0  0  0  0  0  0  0  0999 V2000
    6.4427   -0.9301    0.0059 C   0  0  0  0  0  0  0  0  0  0  0  0
    6.5699    0.2182    0.7497 C   0  0  0  0  0  0  0  0  0  0  0  0
    5.0589    0.9462    1.0614 S   0  0  0  0  0  0  0  0  0  0  0  0
    4.1956   -0.2705    0.2001 C   0  0  0  0  0  0  0  0  0  0  0  0
    5.0799   -1.2099   -0.3090 C   0  0  0  0  0  0  0  0  0  0  0  0
    2.7470   -0.2728    0.0531 C   0  0  0  0  0  0  0  0  0  0  0  0
    2.0043   -1.2278   -0.6294 C   0  0  0  0  0  0  0  0  0  0  0  0
    0.6355   -0.9070   -0.5627 C   0  0  0  0  0  0  0  0  0  0  0  0
   -0.4867   -1.5285   -1.0710 O   0  0  0  0  0  0  0  0  0  0  0  0
   -1.5226   -0.7392   -0.6727 C   0  0  0  0  0  0  0  0  0  0  0  0
   -3.0440   -0.8806   -0.9155 C   0  0  0  0  0  0  0  0  0  0  0  0
   -3.8568   -2.0906   -1.7674 S   0  0  0  0  0  0  0  0  0  0  0  0
   -5.3838   -1.3466   -1.4472 C   0  0  0  0  0  0  0  0  0  0  0  0
   -5.2676   -0.1877   -0.6978 C   0  0  0  0  0  0  0  0  0  0  0  0
   -3.9132    0.0550   -0.4072 C   0  0  0  0  0  0  0  0  0  0  0  0
   -3.3424    1.1480    0.3458 C   0  0  0  0  0  0  0  0  0  0  0  0
   -4.0786    2.1535    0.9119 C   0  0  0  0  0  0  0  0  0  0  0  0
   -3.0320    3.2675    1.7262 S   0  0  0  0  0  0  0  0  0  0  0  0
   -1.6072    2.3780    1.3031 C   0  0  0  0  0  0  0  0  0  0  0  0
   -1.9526    1.2784    0.5685 C   0  0  0  0  0  0  0  0  0  0  0  0
   -1.0625    0.3173    0.0460 C   0  0  0  0  0  0  0  0  0  0  0  0
    0.3203    0.2285    0.1284 C   0  0  0  0  0  0  0  0  0  0  0  0
    1.7440    0.9734    0.7457 S   0  0  0  0  0  0  0  0  0  0  0  0
    7.2834   -1.5414   -0.2987 H   0  0  0  0  0  0  0  0  0  0  0  0
    7.4786    0.6672    1.1268 H   0  0  0  0  0  0  0  0  0  0  0  0
    4.7742   -2.0720   -0.8886 H   0  0  0  0  0  0  0  0  0  0  0  0
    2.4035   -2.0928   -1.1399 H   0  0  0  0  0  0  0  0  0  0  0  0
   -6.2875   -1.8025   -1.8282 H   0  0  0  0  0  0  0  0  0  0  0  0
   -6.1158    0.4145   -0.3997 H   0  0  0  0  0  0  0  0  0  0  0  0
   -5.1461    2.3220    0.9119 H   0  0  0  0  0  0  0  0  0  0  0  0
   -0.6385    2.7321    1.6258 H   0  0  0  0  0  0  0  0  0  0  0  0
  1  2  2  0
  2  3  1  0
  3  4  1  0
  4  5  2  0
  4  6  1  0
  6  7  2  0
  7  8  1  0
  8  9  1  0
  9 10  1  0
 10 11  1  0
 11 12  1  0
 12 13  1  0
 13 14  2  0
 14 15  1  0
 15 16  1  0
 16 17  2  0
 17 18  1  0
 18 19  1  0
 19 20  2  0
 20 21  1  0
 21 22  1  0
 22 23  1  0
  5  1  1  0
 23  6  1  0
 22  8  2  0
 21 10  2  0
 15 11  2  0
 20 16  1  0
  1 24  1  0
  2 25  1  0
  5 26  1  0
  7 27  1  0
 13 28  1  0
 14 29  1  0
 17 30  1  0
 19 31  1  0
M  END
