
     RDKit          3D

 30 34  0  0  0  0  0  0  0  0999 V2000
   -6.0849   -1.2319   -1.0877 C   0  0  0  0  0  0  0  0  0  0  0  0
   -6.4886   -0.4908   -0.0035 C   0  0  0  0  0  0  0  0  0  0  0  0
   -5.1678    0.2046    0.8223 S   0  0  0  0  0  0  0  0  0  0  0  0
   -4.0143   -0.4786   -0.2652 C   0  0  0  0  0  0  0  0  0  0  0  0
   -4.6663   -1.2248   -1.2375 C   0  0  0  0  0  0  0  0  0  0  0  0
   -2.5679   -0.2317   -0.0822 C   0  0  0  0  0  0  0  0  0  0  0  0
   -1.6219   -0.7720   -0.9459 C   0  0  0  0  0  0  0  0  0  0  0  0
   -0.2731   -0.4787   -0.6870 C   0  0  0  0  0  0  0  0  0  0  0  0
    1.0875   -1.0276   -1.6095 S   0  0  0  0  0  0  0  0  0  0  0  0
    2.1653   -0.1868   -0.5526 C   0  0  0  0  0  0  0  0  0  0  0  0
    3.5651    0.0402   -0.3921 C   0  0  0  0  0  0  0  0  0  0  0  0
    4.7163   -0.3562   -1.0775 C   0  0  0  0  0  0  0  0  0  0  0  0
    5.9380    0.0477   -0.6492 N   0  0  0  0  0  0  0  0  0  0  0  0
    6.0170    0.8357    0.4464 C   0  0  0  0  0  0  0  0  0  0  0  0
    4.9325    1.2796    1.1907 C   0  0  0  0  0  0  0  0  0  0  0  0
    3.6853    0.8545    0.7356 C   0  0  0  0  0  0  0  0  0  0  0  0
    2.4293    1.1076    1.2317 N   0  0  0  0  0  0  0  0  0  0  0  0
    1.5037    0.4687    0.4406 C   0  0  0  0  0  0  0  0  0  0  0  0
    0.0851    0.3237    0.3973 C   0  0  0  0  0  0  0  0  0  0  0  0
   -0.9283    0.8279    1.2181 C   0  0  0  0  0  0  0  0  0  0  0  0
   -2.2270    0.5465    0.9701 N   0  0  0  0  0  0  0  0  0  0  0  0
   -6.7712   -1.7544   -1.7427 H   0  0  0  0  0  0  0  0  0  0  0  0
   -7.4975   -0.3220    0.3468 H   0  0  0  0  0  0  0  0  0  0  0  0
   -4.1579   -1.7524   -2.0343 H   0  0  0  0  0  0  0  0  0  0  0  0
   -1.8940   -1.3948   -1.7882 H   0  0  0  0  0  0  0  0  0  0  0  0
    4.6958   -0.9868   -1.9589 H   0  0  0  0  0  0  0  0  0  0  0  0
    7.0283    1.1185    0.7288 H   0  0  0  0  0  0  0  0  0  0  0  0
    5.0575    1.9106    2.0610 H   0  0  0  0  0  0  0  0  0  0  0  0
    2.1907    1.6660    2.0413 H   0  0  0  0  0  0  0  0  0  0  0  0
   -0.7368    1.4579    2.0796 H   0  0  0  0  0  0  0  0  0  0  0  0
  1  2  2  0
  2  3  1  0
  3  4  1  0
  4  5  2  0
  4  6  1  0
  6  7  2  0
  7  8  1  0
  8  9  1  0
  9 10  1  0
 10 11  1  0
 11 12  2  0
 12 13  1  0
 13 14  2  0
 14 15  1  0
 15 16  2  0
 16 17  1  0
 17 18  1  0
 18 19  1  0
 19 20  1  0
 20 21  2  0
  5  1  1  0
 21  6  1  0
 19  8  2  0
 18 10  2  0
 16 11  1  0
  1 22  1  0
  2 23  1  0
  5 24  1  0
  7 25  1  0
 12 26  1  0
 14 27  1  0
 15 28  1  0
 17 29  1  0
 20 30  1  0
M  END
