
     RDKit          3D

 43 49  0  0  0  0  0  0  0  0999 V2000
    7.1802    2.5186    0.3926 C   0  0  0  0  0  0  0  0  0  0  0  0
    7.7288    1.2673    0.5612 C   0  0  0  0  0  0  0  0  0  0  0  0
    6.5315    0.0510    0.6678 S   0  0  0  0  0  0  0  0  0  0  0  0
    5.2650    1.1881    0.4671 C   0  0  0  0  0  0  0  0  0  0  0  0
    5.7561    2.4735    0.3469 C   0  0  0  0  0  0  0  0  0  0  0  0
    3.8845    0.7491    0.4863 C   0  0  0  0  0  0  0  0  0  0  0  0
    2.9556    1.0898    1.5008 C   0  0  0  0  0  0  0  0  0  0  0  0
    1.5810    0.6621    1.5096 C   0  0  0  0  0  0  0  0  0  0  0  0
    0.9934   -0.1375    0.4973 C   0  0  0  0  0  0  0  0  0  0  0  0
   -0.3806   -0.5721    0.4929 C   0  0  0  0  0  0  0  0  0  0  0  0
   -1.5332    0.0146   -0.6356 S   0  0  0  0  0  0  0  0  0  0  0  0
   -2.8234   -0.9253    0.0289 C   0  0  0  0  0  0  0  0  0  0  0  0
   -4.1447   -0.9044   -0.5220 C   0  0  0  0  0  0  0  0  0  0  0  0
   -5.0687   -2.3400   -0.8553 S   0  0  0  0  0  0  0  0  0  0  0  0
   -6.4346   -1.4589   -1.4695 C   0  0  0  0  0  0  0  0  0  0  0  0
   -6.1365   -0.1468   -1.3943 C   0  0  0  0  0  0  0  0  0  0  0  0
   -6.6919    1.1248   -1.6742 C   0  0  0  0  0  0  0  0  0  0  0  0
   -5.7287    2.0863   -1.3015 C   0  0  0  0  0  0  0  0  0  0  0  0
   -4.5765    1.4899   -0.7937 N   0  0  0  0  0  0  0  0  0  0  0  0
   -4.8949    0.1631   -0.8840 C   0  0  0  0  0  0  0  0  0  0  0  0
   -2.3171   -1.6249    1.0776 C   0  0  0  0  0  0  0  0  0  0  0  0
   -2.8675   -2.5339    2.0233 C   0  0  0  0  0  0  0  0  0  0  0  0
   -1.9230   -2.9961    2.9460 C   0  0  0  0  0  0  0  0  0  0  0  0
   -0.2912   -2.3744    2.7671 S   0  0  0  0  0  0  0  0  0  0  0  0
   -0.9613   -1.4475    1.3672 C   0  0  0  0  0  0  0  0  0  0  0  0
    1.9205   -0.4570   -0.4990 C   0  0  0  0  0  0  0  0  0  0  0  0
    1.7426   -1.2141   -1.6287 C   0  0  0  0  0  0  0  0  0  0  0  0
    2.9102   -1.2661   -2.3390 O   0  0  0  0  0  0  0  0  0  0  0  0
    3.8459   -0.5444   -1.6506 C   0  0  0  0  0  0  0  0  0  0  0  0
    3.2895   -0.0375   -0.5042 C   0  0  0  0  0  0  0  0  0  0  0  0
    7.7708    3.4227    0.3087 H   0  0  0  0  0  0  0  0  0  0  0  0
    8.7757    1.0061    0.6324 H   0  0  0  0  0  0  0  0  0  0  0  0
    5.1224    3.3437    0.2229 H   0  0  0  0  0  0  0  0  0  0  0  0
    3.2976    1.7039    2.3353 H   0  0  0  0  0  0  0  0  0  0  0  0
    0.9623    0.9800    2.3504 H   0  0  0  0  0  0  0  0  0  0  0  0
   -7.3223   -1.9616   -1.8249 H   0  0  0  0  0  0  0  0  0  0  0  0
   -7.6651    1.3448   -2.0926 H   0  0  0  0  0  0  0  0  0  0  0  0
   -5.7754    3.1663   -1.3611 H   0  0  0  0  0  0  0  0  0  0  0  0
   -3.7144    1.8972   -0.4506 H   0  0  0  0  0  0  0  0  0  0  0  0
   -3.9027   -2.8521    2.0523 H   0  0  0  0  0  0  0  0  0  0  0  0
   -2.0981   -3.6931    3.7545 H   0  0  0  0  0  0  0  0  0  0  0  0
    0.9132   -1.7531   -2.0649 H   0  0  0  0  0  0  0  0  0  0  0  0
    4.8250   -0.5024   -2.1068 H   0  0  0  0  0  0  0  0  0  0  0  0
  1  2  2  0
  2  3  1  0
  3  4  1  0
  4  5  2  0
  4  6  1  0
  6  7  2  0
  7  8  1  0
  8  9  2  0
  9 10  1  0
 10 11  1  0
 11 12  1  0
 12 13  1  0
 13 14  1  0
 14 15  1  0
 15 16  2  0
 16 17  1  0
 17 18  2  0
 18 19  1  0
 19 20  1  0
 12 21  2  0
 21 22  1  0
 22 23  2  0
 23 24  1  0
 24 25  1  0
  9 26  1  0
 26 27  2  0
 27 28  1  0
 28 29  1  0
 29 30  2  0
  5  1  1  0
 30  6  1  0
 25 10  2  0
 30 26  1  0
 20 13  2  0
 25 21  1  0
 20 16  1  0
  1 31  1  0
  2 32  1  0
  5 33  1  0
  7 34  1  0
  8 35  1  0
 15 36  1  0
 17 37  1  0
 18 38  1  0
 19 39  1  0
 22 40  1  0
 23 41  1  0
 27 42  1  0
 29 43  1  0
M  END
