
     RDKit          3D

 39 44  0  0  0  0  0  0  0  0999 V2000
    7.6283    0.3941   -1.2168 C   0  0  0  0  0  0  0  0  0  0  0  0
    8.0183    0.3878    0.1013 C   0  0  0  0  0  0  0  0  0  0  0  0
    6.6833    0.3047    1.1621 S   0  0  0  0  0  0  0  0  0  0  0  0
    5.5475    0.2787   -0.1305 C   0  0  0  0  0  0  0  0  0  0  0  0
    6.2113    0.3301   -1.3479 C   0  0  0  0  0  0  0  0  0  0  0  0
    4.0933    0.2044    0.1038 C   0  0  0  0  0  0  0  0  0  0  0  0
    3.4949    0.2447    1.3609 C   0  0  0  0  0  0  0  0  0  0  0  0
    2.1032    0.1609    1.4575 C   0  0  0  0  0  0  0  0  0  0  0  0
    1.3310    0.0414    0.3031 C   0  0  0  0  0  0  0  0  0  0  0  0
    2.0117    0.0235   -0.9087 C   0  0  0  0  0  0  0  0  0  0  0  0
    3.3593    0.0922   -1.0332 N   0  0  0  0  0  0  0  0  0  0  0  0
   -0.1136   -0.0675    0.3604 C   0  0  0  0  0  0  0  0  0  0  0  0
   -1.1242    1.1493    1.0602 S   0  0  0  0  0  0  0  0  0  0  0  0
   -2.6015    0.2971    0.7008 C   0  0  0  0  0  0  0  0  0  0  0  0
   -3.8976    0.8136    1.0247 C   0  0  0  0  0  0  0  0  0  0  0  0
   -4.2757    1.4748    2.5766 S   0  0  0  0  0  0  0  0  0  0  0  0
   -5.9146    1.7999    2.1584 C   0  0  0  0  0  0  0  0  0  0  0  0
   -6.1600    1.4188    0.8711 C   0  0  0  0  0  0  0  0  0  0  0  0
   -7.6609    1.5126   -0.1195 S   0  0  0  0  0  0  0  0  0  0  0  0
   -6.6811    0.8014   -1.3941 C   0  0  0  0  0  0  0  0  0  0  0  0
   -5.3473    0.5263   -1.0703 C   0  0  0  0  0  0  0  0  0  0  0  0
   -5.0243    0.8755    0.2700 C   0  0  0  0  0  0  0  0  0  0  0  0
   -2.2544   -0.8579    0.0862 C   0  0  0  0  0  0  0  0  0  0  0  0
   -2.8201   -2.0402   -0.4614 C   0  0  0  0  0  0  0  0  0  0  0  0
   -1.7533   -2.8383   -0.9246 C   0  0  0  0  0  0  0  0  0  0  0  0
   -0.5204   -2.2325   -0.6943 N   0  0  0  0  0  0  0  0  0  0  0  0
   -0.9033   -1.0634   -0.0974 C   0  0  0  0  0  0  0  0  0  0  0  0
    8.3216    0.4420   -2.0474 H   0  0  0  0  0  0  0  0  0  0  0  0
    9.0250    0.4276    0.4942 H   0  0  0  0  0  0  0  0  0  0  0  0
    5.6891    0.3232   -2.2981 H   0  0  0  0  0  0  0  0  0  0  0  0
    4.0788    0.3398    2.2697 H   0  0  0  0  0  0  0  0  0  0  0  0
    1.6349    0.1841    2.4389 H   0  0  0  0  0  0  0  0  0  0  0  0
    1.4779   -0.0442   -1.8537 H   0  0  0  0  0  0  0  0  0  0  0  0
   -6.6126    2.2476    2.8522 H   0  0  0  0  0  0  0  0  0  0  0  0
   -7.1645    0.6255   -2.3456 H   0  0  0  0  0  0  0  0  0  0  0  0
   -4.6552    0.0991   -1.7859 H   0  0  0  0  0  0  0  0  0  0  0  0
   -3.8675   -2.3078   -0.5128 H   0  0  0  0  0  0  0  0  0  0  0  0
   -1.7772   -3.8124   -1.3970 H   0  0  0  0  0  0  0  0  0  0  0  0
    0.4199   -2.5565   -0.8891 H   0  0  0  0  0  0  0  0  0  0  0  0
  1  2  2  0
  2  3  1  0
  3  4  1  0
  4  5  2  0
  4  6  1  0
  6  7  2  0
  7  8  1  0
  8  9  2  0
  9 10  1  0
 10 11  2  0
  9 12  1  0
 12 13  1  0
 13 14  1  0
 14 15  1  0
 15 16  1  0
 16 17  1  0
 17 18  2  0
 18 19  1  0
 19 20  1  0
 20 21  2  0
 21 22  1  0
 14 23  2  0
 23 24  1  0
 24 25  2  0
 25 26  1  0
 26 27  1  0
  5  1  1  0
 11  6  1  0
 27 12  2  0
 22 15  2  0
 27 23  1  0
 22 18  1  0
  1 28  1  0
  2 29  1  0
  5 30  1  0
  7 31  1  0
  8 32  1  0
 10 33  1  0
 17 34  1  0
 20 35  1  0
 21 36  1  0
 24 37  1  0
 25 38  1  0
 26 39  1  0
M  END
