
     RDKit          3D

 38 43  0  0  0  0  0  0  0  0999 V2000
    7.7904   -0.4702   -0.2512 C   0  0  0  0  0  0  0  0  0  0  0  0
    7.7619   -1.4741   -1.1911 C   0  0  0  0  0  0  0  0  0  0  0  0
    6.1657   -1.8962   -1.6290 S   0  0  0  0  0  0  0  0  0  0  0  0
    5.4854   -0.7297   -0.5657 C   0  0  0  0  0  0  0  0  0  0  0  0
    6.4792   -0.0443    0.1119 C   0  0  0  0  0  0  0  0  0  0  0  0
    4.0302   -0.5857   -0.4486 C   0  0  0  0  0  0  0  0  0  0  0  0
    3.1790   -0.6043   -1.5566 C   0  0  0  0  0  0  0  0  0  0  0  0
    1.8017   -0.4474   -1.3853 C   0  0  0  0  0  0  0  0  0  0  0  0
    1.2995   -0.2677   -0.1006 C   0  0  0  0  0  0  0  0  0  0  0  0
    2.0953   -0.2433    0.9922 N   0  0  0  0  0  0  0  0  0  0  0  0
    3.4277   -0.4007    0.7935 C   0  0  0  0  0  0  0  0  0  0  0  0
   -0.1208   -0.1029    0.1652 C   0  0  0  0  0  0  0  0  0  0  0  0
   -1.3157   -1.1460   -0.5063 S   0  0  0  0  0  0  0  0  0  0  0  0
   -2.6219   -0.3343    0.2739 C   0  0  0  0  0  0  0  0  0  0  0  0
   -3.9879   -0.7256    0.0946 C   0  0  0  0  0  0  0  0  0  0  0  0
   -4.5280   -2.3782    0.2568 S   0  0  0  0  0  0  0  0  0  0  0  0
   -6.1862   -1.9931   -0.0710 C   0  0  0  0  0  0  0  0  0  0  0  0
   -6.2586   -0.6679   -0.2865 C   0  0  0  0  0  0  0  0  0  0  0  0
   -7.3808    0.0411   -0.5839 O   0  0  0  0  0  0  0  0  0  0  0  0
   -6.8320    1.3052   -0.7006 C   0  0  0  0  0  0  0  0  0  0  0  0
   -5.4491    1.3530   -0.4819 C   0  0  0  0  0  0  0  0  0  0  0  0
   -5.0762    0.0252   -0.1984 C   0  0  0  0  0  0  0  0  0  0  0  0
   -2.0954    0.6838    1.0002 C   0  0  0  0  0  0  0  0  0  0  0  0
   -2.6510    1.6722    1.8580 C   0  0  0  0  0  0  0  0  0  0  0  0
   -1.6847    2.5278    2.3958 C   0  0  0  0  0  0  0  0  0  0  0  0
   -0.0231    2.2194    1.9231 S   0  0  0  0  0  0  0  0  0  0  0  0
   -0.7067    0.8440    0.9627 C   0  0  0  0  0  0  0  0  0  0  0  0
    8.7062   -0.0604    0.1571 H   0  0  0  0  0  0  0  0  0  0  0  0
    8.6023   -1.9832   -1.6428 H   0  0  0  0  0  0  0  0  0  0  0  0
    6.2799    0.7396    0.8333 H   0  0  0  0  0  0  0  0  0  0  0  0
    3.5732   -0.7282   -2.5622 H   0  0  0  0  0  0  0  0  0  0  0  0
    1.1458   -0.4563   -2.2496 H   0  0  0  0  0  0  0  0  0  0  0  0
    4.0157   -0.3804    1.7078 H   0  0  0  0  0  0  0  0  0  0  0  0
   -6.9804   -2.7248   -0.0895 H   0  0  0  0  0  0  0  0  0  0  0  0
   -7.5531    2.0735   -0.9484 H   0  0  0  0  0  0  0  0  0  0  0  0
   -4.8276    2.2355   -0.5342 H   0  0  0  0  0  0  0  0  0  0  0  0
   -3.7033    1.7712    2.0952 H   0  0  0  0  0  0  0  0  0  0  0  0
   -1.8568    3.3533    3.0731 H   0  0  0  0  0  0  0  0  0  0  0  0
  1  2  2  0
  2  3  1  0
  3  4  1  0
  4  5  2  0
  4  6  1  0
  6  7  2  0
  7  8  1  0
  8  9  2  0
  9 10  1  0
 10 11  2  0
  9 12  1  0
 12 13  1  0
 13 14  1  0
 14 15  1  0
 15 16  1  0
 16 17  1  0
 17 18  2  0
 18 19  1  0
 19 20  1  0
 20 21  2  0
 21 22  1  0
 14 23  2  0
 23 24  1  0
 24 25  2  0
 25 26  1  0
 26 27  1  0
  5  1  1  0
 11  6  1  0
 27 12  2  0
 22 15  2  0
 27 23  1  0
 22 18  1  0
  1 28  1  0
  2 29  1  0
  5 30  1  0
  7 31  1  0
  8 32  1  0
 11 33  1  0
 17 34  1  0
 20 35  1  0
 21 36  1  0
 24 37  1  0
 25 38  1  0
M  END
