
     RDKit          3D

 36 41  0  0  0  0  0  0  0  0999 V2000
    6.7705   -1.2074   -0.0565 C   0  0  0  0  0  0  0  0  0  0  0  0
    7.5376   -0.2131    0.5062 C   0  0  0  0  0  0  0  0  0  0  0  0
    6.5856    1.0968    1.0548 S   0  0  0  0  0  0  0  0  0  0  0  0
    5.1310    0.3474    0.5446 C   0  0  0  0  0  0  0  0  0  0  0  0
    5.3825   -0.8831   -0.0337 C   0  0  0  0  0  0  0  0  0  0  0  0
    3.8377    0.9546    0.7153 C   0  0  0  0  0  0  0  0  0  0  0  0
    3.4877    2.1709    1.2726 C   0  0  0  0  0  0  0  0  0  0  0  0
    2.0778    2.2794    1.1892 C   0  0  0  0  0  0  0  0  0  0  0  0
    1.6079    1.1259    0.5831 C   0  0  0  0  0  0  0  0  0  0  0  0
    2.6888    0.3323    0.3024 O   0  0  0  0  0  0  0  0  0  0  0  0
    0.2586    0.7467    0.2690 C   0  0  0  0  0  0  0  0  0  0  0  0
   -1.1122    1.7267    0.6415 S   0  0  0  0  0  0  0  0  0  0  0  0
   -2.2406    0.6078   -0.0208 C   0  0  0  0  0  0  0  0  0  0  0  0
   -3.6544    0.8350    0.0015 C   0  0  0  0  0  0  0  0  0  0  0  0
   -4.3812    2.3293   -0.5346 S   0  0  0  0  0  0  0  0  0  0  0  0
   -5.9994    1.7931   -0.2185 C   0  0  0  0  0  0  0  0  0  0  0  0
   -5.9231    0.5422    0.2685 C   0  0  0  0  0  0  0  0  0  0  0  0
   -6.9681   -0.2402    0.6506 O   0  0  0  0  0  0  0  0  0  0  0  0
   -6.2770   -1.3658    1.0608 C   0  0  0  0  0  0  0  0  0  0  0  0
   -4.8859   -1.2651    0.9287 C   0  0  0  0  0  0  0  0  0  0  0  0
   -4.6603    0.0162    0.3904 C   0  0  0  0  0  0  0  0  0  0  0  0
   -1.5359   -0.4483   -0.4972 C   0  0  0  0  0  0  0  0  0  0  0  0
   -1.9009   -1.6460   -1.1701 C   0  0  0  0  0  0  0  0  0  0  0  0
   -0.8004   -2.4486   -1.4832 C   0  0  0  0  0  0  0  0  0  0  0  0
    0.7704   -1.8334   -1.0054 S   0  0  0  0  0  0  0  0  0  0  0  0
   -0.1446   -0.4072   -0.3546 C   0  0  0  0  0  0  0  0  0  0  0  0
    7.1817   -2.1224   -0.4648 H   0  0  0  0  0  0  0  0  0  0  0  0
    8.6125   -0.1907    0.6226 H   0  0  0  0  0  0  0  0  0  0  0  0
    4.5998   -1.5234   -0.4247 H   0  0  0  0  0  0  0  0  0  0  0  0
    4.1674    2.8998    1.6919 H   0  0  0  0  0  0  0  0  0  0  0  0
    1.4769    3.1097    1.5340 H   0  0  0  0  0  0  0  0  0  0  0  0
   -6.8776    2.3962   -0.3961 H   0  0  0  0  0  0  0  0  0  0  0  0
   -6.9140   -2.1599    1.4286 H   0  0  0  0  0  0  0  0  0  0  0  0
   -4.1653   -2.0237    1.1992 H   0  0  0  0  0  0  0  0  0  0  0  0
   -2.9128   -1.9291   -1.4338 H   0  0  0  0  0  0  0  0  0  0  0  0
   -0.8204   -3.4027   -1.9924 H   0  0  0  0  0  0  0  0  0  0  0  0
  1  2  2  0
  2  3  1  0
  3  4  1  0
  4  5  2  0
  4  6  1  0
  6  7  2  0
  7  8  1  0
  8  9  2  0
  9 10  1  0
  9 11  1  0
 11 12  1  0
 12 13  1  0
 13 14  1  0
 14 15  1  0
 15 16  1  0
 16 17  2  0
 17 18  1  0
 18 19  1  0
 19 20  2  0
 20 21  1  0
 13 22  2  0
 22 23  1  0
 23 24  2  0
 24 25  1  0
 25 26  1  0
  5  1  1  0
 10  6  1  0
 26 11  2  0
 21 14  2  0
 26 22  1  0
 21 17  1  0
  1 27  1  0
  2 28  1  0
  5 29  1  0
  7 30  1  0
  8 31  1  0
 16 32  1  0
 19 33  1  0
 20 34  1  0
 23 35  1  0
 24 36  1  0
M  END
