
     RDKit          3D

 37 42  0  0  0  0  0  0  0  0999 V2000
    7.5080   -1.0562    1.5669 C   0  0  0  0  0  0  0  0  0  0  0  0
    8.1475   -0.4963    0.4869 C   0  0  0  0  0  0  0  0  0  0  0  0
    7.0468    0.2031   -0.6139 S   0  0  0  0  0  0  0  0  0  0  0  0
    5.6811   -0.2335    0.3420 C   0  0  0  0  0  0  0  0  0  0  0  0
    6.0920   -0.9049    1.4831 C   0  0  0  0  0  0  0  0  0  0  0  0
    4.3282    0.0960   -0.0666 C   0  0  0  0  0  0  0  0  0  0  0  0
    3.9167    0.7502   -1.2151 C   0  0  0  0  0  0  0  0  0  0  0  0
    2.5003    0.9057   -1.2923 C   0  0  0  0  0  0  0  0  0  0  0  0
    1.8499    0.3686   -0.2010 C   0  0  0  0  0  0  0  0  0  0  0  0
    2.9666   -0.3182    0.8989 S   0  0  0  0  0  0  0  0  0  0  0  0
    0.4363    0.3550    0.0508 C   0  0  0  0  0  0  0  0  0  0  0  0
   -0.4343   -1.0633    0.5016 S   0  0  0  0  0  0  0  0  0  0  0  0
   -1.9538   -0.2478    0.5710 C   0  0  0  0  0  0  0  0  0  0  0  0
   -3.1781   -0.9249    0.9066 C   0  0  0  0  0  0  0  0  0  0  0  0
   -3.2922   -1.9176    2.3168 S   0  0  0  0  0  0  0  0  0  0  0  0
   -4.9364   -2.3036    2.0273 C   0  0  0  0  0  0  0  0  0  0  0  0
   -5.3963   -1.6956    0.8891 C   0  0  0  0  0  0  0  0  0  0  0  0
   -6.6724   -1.8456    0.4377 N   0  0  0  0  0  0  0  0  0  0  0  0
   -6.8610   -1.1441   -0.7132 C   0  0  0  0  0  0  0  0  0  0  0  0
   -5.8873   -0.3675   -1.3521 C   0  0  0  0  0  0  0  0  0  0  0  0
   -4.6089   -0.1976   -0.9170 N   0  0  0  0  0  0  0  0  0  0  0  0
   -4.3857   -0.8941    0.2378 C   0  0  0  0  0  0  0  0  0  0  0  0
   -1.7322    1.0518    0.2491 C   0  0  0  0  0  0  0  0  0  0  0  0
   -2.5670    2.1985    0.1539 C   0  0  0  0  0  0  0  0  0  0  0  0
   -1.8645    3.3545   -0.1994 C   0  0  0  0  0  0  0  0  0  0  0  0
   -0.1365    3.1706   -0.4396 S   0  0  0  0  0  0  0  0  0  0  0  0
   -0.4163    1.4244   -0.0406 C   0  0  0  0  0  0  0  0  0  0  0  0
    8.0264   -1.5508    2.3792 H   0  0  0  0  0  0  0  0  0  0  0  0
    9.2101   -0.4636    0.2896 H   0  0  0  0  0  0  0  0  0  0  0  0
    5.4119   -1.2798    2.2385 H   0  0  0  0  0  0  0  0  0  0  0  0
    4.5935    1.1087   -1.9812 H   0  0  0  0  0  0  0  0  0  0  0  0
    1.9912    1.3863   -2.1194 H   0  0  0  0  0  0  0  0  0  0  0  0
   -5.4810   -2.9524    2.6978 H   0  0  0  0  0  0  0  0  0  0  0  0
   -7.8593   -1.2213   -1.1353 H   0  0  0  0  0  0  0  0  0  0  0  0
   -6.1283    0.1584   -2.2720 H   0  0  0  0  0  0  0  0  0  0  0  0
   -3.6365    2.2024    0.3273 H   0  0  0  0  0  0  0  0  0  0  0  0
   -2.2784    4.3444   -0.3355 H   0  0  0  0  0  0  0  0  0  0  0  0
  1  2  2  0
  2  3  1  0
  3  4  1  0
  4  5  2  0
  4  6  1  0
  6  7  2  0
  7  8  1  0
  8  9  2  0
  9 10  1  0
  9 11  1  0
 11 12  1  0
 12 13  1  0
 13 14  1  0
 14 15  1  0
 15 16  1  0
 16 17  2  0
 17 18  1  0
 18 19  2  0
 19 20  1  0
 20 21  2  0
 21 22  1  0
 13 23  2  0
 23 24  1  0
 24 25  2  0
 25 26  1  0
 26 27  1  0
  5  1  1  0
 10  6  1  0
 27 11  2  0
 22 14  2  0
 27 23  1  0
 22 17  1  0
  1 28  1  0
  2 29  1  0
  5 30  1  0
  7 31  1  0
  8 32  1  0
 16 33  1  0
 19 34  1  0
 20 35  1  0
 24 36  1  0
 25 37  1  0
M  END
