
     RDKit          3D

 45 51  0  0  0  0  0  0  0  0999 V2000
    7.3247   -0.4078    0.0720 C   0  0  0  0  0  0  0  0  0  0  0  0
    7.4355    0.8465   -0.4812 C   0  0  0  0  0  0  0  0  0  0  0  0
    5.9087    1.5488   -0.7862 S   0  0  0  0  0  0  0  0  0  0  0  0
    5.0713    0.1786   -0.1726 C   0  0  0  0  0  0  0  0  0  0  0  0
    5.9634   -0.7940    0.2460 C   0  0  0  0  0  0  0  0  0  0  0  0
    3.6059    0.1402   -0.1679 C   0  0  0  0  0  0  0  0  0  0  0  0
    2.9136   -1.0127   -0.4891 C   0  0  0  0  0  0  0  0  0  0  0  0
    1.5558   -1.1407   -0.4904 N   0  0  0  0  0  0  0  0  0  0  0  0
    0.7328   -0.1182   -0.1687 C   0  0  0  0  0  0  0  0  0  0  0  0
    1.4041    1.1000    0.1492 C   0  0  0  0  0  0  0  0  0  0  0  0
    2.8174    1.2286    0.1663 C   0  0  0  0  0  0  0  0  0  0  0  0
    0.5076    2.1244    0.4574 C   0  0  0  0  0  0  0  0  0  0  0  0
    0.8148    3.3864    0.8985 C   0  0  0  0  0  0  0  0  0  0  0  0
   -0.3332    4.0666    1.1610 O   0  0  0  0  0  0  0  0  0  0  0  0
   -1.3686    3.2285    0.8671 C   0  0  0  0  0  0  0  0  0  0  0  0
   -0.9040    2.0336    0.3644 C   0  0  0  0  0  0  0  0  0  0  0  0
   -1.6353    0.8813   -0.0538 C   0  0  0  0  0  0  0  0  0  0  0  0
   -3.0534    0.8186   -0.3256 C   0  0  0  0  0  0  0  0  0  0  0  0
   -3.8740    1.9700   -0.4972 C   0  0  0  0  0  0  0  0  0  0  0  0
   -5.2476    1.9123   -0.7234 C   0  0  0  0  0  0  0  0  0  0  0  0
   -5.8559    0.6832   -0.8142 C   0  0  0  0  0  0  0  0  0  0  0  0
   -5.0733   -0.4657   -0.7162 C   0  0  0  0  0  0  0  0  0  0  0  0
   -3.6620   -0.4427   -0.4983 C   0  0  0  0  0  0  0  0  0  0  0  0
   -2.8578   -1.6277   -0.4535 C   0  0  0  0  0  0  0  0  0  0  0  0
   -3.4473   -2.9210   -0.5716 C   0  0  0  0  0  0  0  0  0  0  0  0
   -2.7216   -4.1070   -0.5284 C   0  0  0  0  0  0  0  0  0  0  0  0
   -1.3632   -4.0425   -0.3498 C   0  0  0  0  0  0  0  0  0  0  0  0
   -0.7509   -2.7935   -0.2330 C   0  0  0  0  0  0  0  0  0  0  0  0
   -1.4355   -1.5440   -0.3023 C   0  0  0  0  0  0  0  0  0  0  0  0
   -0.7568   -0.2649   -0.1761 C   0  0  0  0  0  0  0  0  0  0  0  0
    8.1776   -1.0199    0.3393 H   0  0  0  0  0  0  0  0  0  0  0  0
    8.3407    1.3866   -0.7233 H   0  0  0  0  0  0  0  0  0  0  0  0
    5.6582   -1.7431    0.6709 H   0  0  0  0  0  0  0  0  0  0  0  0
    3.4362   -1.9212   -0.7797 H   0  0  0  0  0  0  0  0  0  0  0  0
    3.2763    2.1735    0.4407 H   0  0  0  0  0  0  0  0  0  0  0  0
    1.7280    3.9261    1.1064 H   0  0  0  0  0  0  0  0  0  0  0  0
   -2.3383    3.6393    1.1059 H   0  0  0  0  0  0  0  0  0  0  0  0
   -3.4407    2.9636   -0.5234 H   0  0  0  0  0  0  0  0  0  0  0  0
   -5.8236    2.8253   -0.8439 H   0  0  0  0  0  0  0  0  0  0  0  0
   -6.9249    0.6058   -0.9909 H   0  0  0  0  0  0  0  0  0  0  0  0
   -5.6109   -1.4013   -0.8354 H   0  0  0  0  0  0  0  0  0  0  0  0
   -4.5183   -3.0456   -0.6961 H   0  0  0  0  0  0  0  0  0  0  0  0
   -3.2242   -5.0650   -0.6208 H   0  0  0  0  0  0  0  0  0  0  0  0
   -0.7672   -4.9485   -0.2897 H   0  0  0  0  0  0  0  0  0  0  0  0
    0.3161   -2.8407   -0.0458 H   0  0  0  0  0  0  0  0  0  0  0  0
  1  2  2  0
  2  3  1  0
  3  4  1  0
  4  5  2  0
  4  6  1  0
  6  7  2  0
  7  8  1  0
  8  9  2  0
  9 10  1  0
 10 11  2  0
 10 12  1  0
 12 13  2  0
 13 14  1  0
 14 15  1  0
 15 16  2  0
 16 17  1  0
 17 18  2  0
 18 19  1  0
 19 20  2  0
 20 21  1  0
 21 22  2  0
 22 23  1  0
 23 24  2  0
 24 25  1  0
 25 26  2  0
 26 27  1  0
 27 28  2  0
 28 29  1  0
 29 30  2  0
  5  1  1  0
 11  6  1  0
 16 12  1  0
 30 17  1  0
 30  9  1  0
 23 18  1  0
 29 24  1  0
  1 31  1  0
  2 32  1  0
  5 33  1  0
  7 34  1  0
 11 35  1  0
 13 36  1  0
 15 37  1  0
 19 38  1  0
 20 39  1  0
 21 40  1  0
 22 41  1  0
 25 42  1  0
 26 43  1  0
 27 44  1  0
 28 45  1  0
M  END
