
     RDKit          3D

 37 43  0  0  0  0  0  0  0  0999 V2000
    6.7192   -1.3319   -0.2787 C   0  0  0  0  0  0  0  0  0  0  0  0
    7.1710   -0.3650    0.5854 C   0  0  0  0  0  0  0  0  0  0  0  0
    5.8942    0.5741    1.2117 S   0  0  0  0  0  0  0  0  0  0  0  0
    4.6935   -0.2993    0.3327 C   0  0  0  0  0  0  0  0  0  0  0  0
    5.3009   -1.2937   -0.4229 C   0  0  0  0  0  0  0  0  0  0  0  0
    3.2541    0.0420    0.4392 C   0  0  0  0  0  0  0  0  0  0  0  0
    2.7706    1.0847    1.2505 C   0  0  0  0  0  0  0  0  0  0  0  0
    1.4739    1.4734    1.4143 N   0  0  0  0  0  0  0  0  0  0  0  0
    0.5888    0.7435    0.6944 C   0  0  0  0  0  0  0  0  0  0  0  0
    0.9721   -0.3053   -0.1344 C   0  0  0  0  0  0  0  0  0  0  0  0
    2.3007   -0.6880   -0.2892 C   0  0  0  0  0  0  0  0  0  0  0  0
   -0.1099   -0.8749   -0.7448 O   0  0  0  0  0  0  0  0  0  0  0  0
   -1.2248   -0.1940   -0.3142 C   0  0  0  0  0  0  0  0  0  0  0  0
   -0.7962    0.7864    0.5583 C   0  0  0  0  0  0  0  0  0  0  0  0
   -1.7831    1.6266    1.1379 C   0  0  0  0  0  0  0  0  0  0  0  0
   -1.5334    2.6397    2.0156 C   0  0  0  0  0  0  0  0  0  0  0  0
   -3.0272    3.3753    2.4448 S   0  0  0  0  0  0  0  0  0  0  0  0
   -3.9346    2.3022    1.4354 C   0  0  0  0  0  0  0  0  0  0  0  0
   -3.1365    1.3908    0.7728 C   0  0  0  0  0  0  0  0  0  0  0  0
   -3.6307    0.3938   -0.1217 C   0  0  0  0  0  0  0  0  0  0  0  0
   -5.0070    0.1882   -0.4644 C   0  0  0  0  0  0  0  0  0  0  0  0
   -5.4366   -0.8116   -1.3534 C   0  0  0  0  0  0  0  0  0  0  0  0
   -4.4331   -1.6351   -1.9169 C   0  0  0  0  0  0  0  0  0  0  0  0
   -4.6550   -2.6367   -2.7815 N   0  0  0  0  0  0  0  0  0  0  0  0
   -3.1718   -3.2858   -3.1398 S   0  0  0  0  0  0  0  0  0  0  0  0
   -2.1842   -2.3288   -2.2174 N   0  0  0  0  0  0  0  0  0  0  0  0
   -2.9700   -1.4449   -1.5763 C   0  0  0  0  0  0  0  0  0  0  0  0
   -2.5707   -0.4208   -0.6709 C   0  0  0  0  0  0  0  0  0  0  0  0
    7.3708   -2.0340   -0.7845 H   0  0  0  0  0  0  0  0  0  0  0  0
    8.1920   -0.1642    0.8800 H   0  0  0  0  0  0  0  0  0  0  0  0
    4.7615   -1.9801   -1.0635 H   0  0  0  0  0  0  0  0  0  0  0  0
    3.4512    1.6930    1.8434 H   0  0  0  0  0  0  0  0  0  0  0  0
    2.5501   -1.5106   -0.9458 H   0  0  0  0  0  0  0  0  0  0  0  0
   -0.5955    2.9909    2.4256 H   0  0  0  0  0  0  0  0  0  0  0  0
   -5.0074    2.4260    1.4056 H   0  0  0  0  0  0  0  0  0  0  0  0
   -5.7744    0.8256   -0.0271 H   0  0  0  0  0  0  0  0  0  0  0  0
   -6.4827   -0.9514   -1.6001 H   0  0  0  0  0  0  0  0  0  0  0  0
  1  2  2  0
  2  3  1  0
  3  4  1  0
  4  5  2  0
  4  6  1  0
  6  7  2  0
  7  8  1  0
  8  9  2  0
  9 10  1  0
 10 11  2  0
 10 12  1  0
 12 13  1  0
 13 14  2  0
 14 15  1  0
 15 16  2  0
 16 17  1  0
 17 18  1  0
 18 19  2  0
 19 20  1  0
 20 21  1  0
 21 22  2  0
 22 23  1  0
 23 24  2  0
 24 25  1  0
 25 26  1  0
 26 27  2  0
 27 28  1  0
  5  1  1  0
 11  6  1  0
 28 13  1  0
 14  9  1  0
 19 15  1  0
 28 20  2  0
 27 23  1  0
  1 29  1  0
  2 30  1  0
  5 31  1  0
  7 32  1  0
 11 33  1  0
 16 34  1  0
 18 35  1  0
 21 36  1  0
 22 37  1  0
M  END
