
     RDKit          3D

 43 49  0  0  0  0  0  0  0  0999 V2000
    7.0094   -2.7068    0.5787 C   0  0  0  0  0  0  0  0  0  0  0  0
    7.7565   -1.5532    0.5466 C   0  0  0  0  0  0  0  0  0  0  0  0
    6.8017   -0.1852    0.1858 S   0  0  0  0  0  0  0  0  0  0  0  0
    5.3624   -1.1179    0.0618 C   0  0  0  0  0  0  0  0  0  0  0  0
    5.6329   -2.4556    0.3016 C   0  0  0  0  0  0  0  0  0  0  0  0
    4.0859   -0.5147   -0.2406 C   0  0  0  0  0  0  0  0  0  0  0  0
    2.5739   -1.3255    0.1174 S   0  0  0  0  0  0  0  0  0  0  0  0
    1.5952   -0.0332   -0.4701 C   0  0  0  0  0  0  0  0  0  0  0  0
    0.1542   -0.0544   -0.5048 C   0  0  0  0  0  0  0  0  0  0  0  0
   -0.6102    0.1143   -1.6874 C   0  0  0  0  0  0  0  0  0  0  0  0
   -2.0465    0.0860   -1.7322 C   0  0  0  0  0  0  0  0  0  0  0  0
   -2.8705   -0.1034   -0.5959 C   0  0  0  0  0  0  0  0  0  0  0  0
   -4.3170   -0.1078   -0.6221 C   0  0  0  0  0  0  0  0  0  0  0  0
   -5.1836   -1.2312   -1.6400 S   0  0  0  0  0  0  0  0  0  0  0  0
   -6.7442   -0.6579   -1.1447 C   0  0  0  0  0  0  0  0  0  0  0  0
   -6.5484    0.3369   -0.2614 C   0  0  0  0  0  0  0  0  0  0  0  0
   -7.5121    1.0658    0.3640 O   0  0  0  0  0  0  0  0  0  0  0  0
   -6.7125    1.9146    1.1090 C   0  0  0  0  0  0  0  0  0  0  0  0
   -5.3378    1.7034    0.9412 C   0  0  0  0  0  0  0  0  0  0  0  0
   -5.2409    0.6406    0.0248 C   0  0  0  0  0  0  0  0  0  0  0  0
   -2.1079   -0.2574    0.5693 C   0  0  0  0  0  0  0  0  0  0  0  0
   -2.5576   -0.4747    1.8503 C   0  0  0  0  0  0  0  0  0  0  0  0
   -1.4516   -0.5512    2.6675 N   0  0  0  0  0  0  0  0  0  0  0  0
   -0.3002   -0.3946    1.9274 C   0  0  0  0  0  0  0  0  0  0  0  0
   -0.6719   -0.2359    0.6132 C   0  0  0  0  0  0  0  0  0  0  0  0
    2.4163    0.9263   -0.9370 C   0  0  0  0  0  0  0  0  0  0  0  0
    2.0504    2.1061   -1.5143 O   0  0  0  0  0  0  0  0  0  0  0  0
    3.2975    2.6401   -1.7688 C   0  0  0  0  0  0  0  0  0  0  0  0
    4.3621    1.8242   -1.3695 C   0  0  0  0  0  0  0  0  0  0  0  0
    3.7640    0.6757   -0.8096 C   0  0  0  0  0  0  0  0  0  0  0  0
    7.4259   -3.6841    0.7896 H   0  0  0  0  0  0  0  0  0  0  0  0
    8.8188   -1.4465    0.7185 H   0  0  0  0  0  0  0  0  0  0  0  0
    4.8805   -3.2350    0.2763 H   0  0  0  0  0  0  0  0  0  0  0  0
   -0.0835    0.2754   -2.6295 H   0  0  0  0  0  0  0  0  0  0  0  0
   -2.5191    0.2331   -2.7043 H   0  0  0  0  0  0  0  0  0  0  0  0
   -7.6761   -1.0598   -1.5136 H   0  0  0  0  0  0  0  0  0  0  0  0
   -7.2680    2.6213    1.7117 H   0  0  0  0  0  0  0  0  0  0  0  0
   -4.5420    2.2550    1.4211 H   0  0  0  0  0  0  0  0  0  0  0  0
   -3.5504   -0.5833    2.2655 H   0  0  0  0  0  0  0  0  0  0  0  0
   -1.4801   -0.7009    3.6678 H   0  0  0  0  0  0  0  0  0  0  0  0
    0.6647   -0.4178    2.4150 H   0  0  0  0  0  0  0  0  0  0  0  0
    3.2692    3.6125   -2.2431 H   0  0  0  0  0  0  0  0  0  0  0  0
    5.4105    2.0568   -1.4862 H   0  0  0  0  0  0  0  0  0  0  0  0
  1  2  2  0
  2  3  1  0
  3  4  1  0
  4  5  2  0
  4  6  1  0
  6  7  1  0
  7  8  1  0
  8  9  1  0
  9 10  2  0
 10 11  1  0
 11 12  2  0
 12 13  1  0
 13 14  1  0
 14 15  1  0
 15 16  2  0
 16 17  1  0
 17 18  1  0
 18 19  2  0
 19 20  1  0
 12 21  1  0
 21 22  2  0
 22 23  1  0
 23 24  1  0
 24 25  2  0
  8 26  2  0
 26 27  1  0
 27 28  1  0
 28 29  2  0
 29 30  1  0
  5  1  1  0
 30  6  2  0
 25  9  1  0
 30 26  1  0
 20 13  2  0
 25 21  1  0
 20 16  1  0
  1 31  1  0
  2 32  1  0
  5 33  1  0
 10 34  1  0
 11 35  1  0
 15 36  1  0
 18 37  1  0
 19 38  1  0
 22 39  1  0
 23 40  1  0
 24 41  1  0
 28 42  1  0
 29 43  1  0
M  END
