
     RDKit          3D

 36 41  0  0  0  0  0  0  0  0999 V2000
    7.2878   -0.3901    0.0658 C   0  0  0  0  0  0  0  0  0  0  0  0
    7.1294   -1.7454   -0.0881 C   0  0  0  0  0  0  0  0  0  0  0  0
    5.4851   -2.1888   -0.1623 S   0  0  0  0  0  0  0  0  0  0  0  0
    4.9396   -0.5583    0.0117 C   0  0  0  0  0  0  0  0  0  0  0  0
    6.0336    0.2873    0.1227 C   0  0  0  0  0  0  0  0  0  0  0  0
    3.5269   -0.1959    0.0310 C   0  0  0  0  0  0  0  0  0  0  0  0
    2.2805   -1.3803   -0.1199 S   0  0  0  0  0  0  0  0  0  0  0  0
    0.9873   -0.2458   -0.0126 C   0  0  0  0  0  0  0  0  0  0  0  0
   -0.3810   -0.7145   -0.0855 C   0  0  0  0  0  0  0  0  0  0  0  0
   -0.6699   -1.9931   -0.2326 N   0  0  0  0  0  0  0  0  0  0  0  0
   -2.0384   -2.1716   -0.2730 C   0  0  0  0  0  0  0  0  0  0  0  0
   -2.8149   -1.0317   -0.1574 C   0  0  0  0  0  0  0  0  0  0  0  0
   -1.7594    0.3075    0.0079 S   0  0  0  0  0  0  0  0  0  0  0  0
   -4.2697   -0.9407   -0.1691 C   0  0  0  0  0  0  0  0  0  0  0  0
   -4.9434   -2.1337   -0.3125 N   0  0  0  0  0  0  0  0  0  0  0  0
   -6.3104   -2.1909   -0.3394 C   0  0  0  0  0  0  0  0  0  0  0  0
   -7.1958   -1.1271   -0.2339 C   0  0  0  0  0  0  0  0  0  0  0  0
   -6.5595    0.1187   -0.0852 C   0  0  0  0  0  0  0  0  0  0  0  0
   -7.1950    1.2948    0.0365 N   0  0  0  0  0  0  0  0  0  0  0  0
   -6.0189    2.4534    0.1836 S   0  0  0  0  0  0  0  0  0  0  0  0
   -4.6563    1.5181    0.0996 N   0  0  0  0  0  0  0  0  0  0  0  0
   -5.0520    0.2402   -0.0490 C   0  0  0  0  0  0  0  0  0  0  0  0
    1.4979    1.0266    0.1372 C   0  0  0  0  0  0  0  0  0  0  0  0
    0.7265    2.1489    0.2509 N   0  0  0  0  0  0  0  0  0  0  0  0
    1.4754    3.2702    0.3874 C   0  0  0  0  0  0  0  0  0  0  0  0
    2.8683    3.2997    0.4116 C   0  0  0  0  0  0  0  0  0  0  0  0
    3.6706    2.2117    0.3021 N   0  0  0  0  0  0  0  0  0  0  0  0
    2.9512    1.0560    0.1622 C   0  0  0  0  0  0  0  0  0  0  0  0
    8.2526    0.0968    0.1347 H   0  0  0  0  0  0  0  0  0  0  0  0
    7.9010   -2.4994   -0.1608 H   0  0  0  0  0  0  0  0  0  0  0  0
    5.9549    1.3606    0.2414 H   0  0  0  0  0  0  0  0  0  0  0  0
   -2.4313   -3.1754   -0.3909 H   0  0  0  0  0  0  0  0  0  0  0  0
   -6.7016   -3.2016   -0.4581 H   0  0  0  0  0  0  0  0  0  0  0  0
   -8.2698   -1.2417   -0.2628 H   0  0  0  0  0  0  0  0  0  0  0  0
    0.9068    4.1911    0.4817 H   0  0  0  0  0  0  0  0  0  0  0  0
    3.3919    4.2448    0.5250 H   0  0  0  0  0  0  0  0  0  0  0  0
  1  2  2  0
  2  3  1  0
  3  4  1  0
  4  5  2  0
  4  6  1  0
  6  7  1  0
  7  8  1  0
  8  9  1  0
  9 10  2  0
 10 11  1  0
 11 12  2  0
 12 13  1  0
 12 14  1  0
 14 15  2  0
 15 16  1  0
 16 17  2  0
 17 18  1  0
 18 19  2  0
 19 20  1  0
 20 21  1  0
 21 22  2  0
  8 23  2  0
 23 24  1  0
 24 25  2  0
 25 26  1  0
 26 27  2  0
 27 28  1  0
  5  1  1  0
 28  6  2  0
 13  9  1  0
 22 14  1  0
 28 23  1  0
 22 18  1  0
  1 29  1  0
  2 30  1  0
  5 31  1  0
 11 32  1  0
 16 33  1  0
 17 34  1  0
 25 35  1  0
 26 36  1  0
M  END
