
     RDKit          3D

 43 49  0  0  0  0  0  0  0  0999 V2000
   -4.4067   -4.0457   -0.5353 Si  0  0  0  0  0  4  0  0  0  0  0  0
   -5.6090   -2.6599   -0.2627 C   0  0  0  0  0  0  0  0  0  0  0  0
   -4.9717   -1.4850   -0.0994 C   0  0  0  0  0  0  0  0  0  0  0  0
   -5.6753   -0.2480    0.1290 C   0  0  0  0  0  0  0  0  0  0  0  0
   -4.9949    0.8961    0.2859 C   0  0  0  0  0  0  0  0  0  0  0  0
   -3.5218    0.9254    0.2302 C   0  0  0  0  0  0  0  0  0  0  0  0
   -2.7889    2.1095    0.3913 C   0  0  0  0  0  0  0  0  0  0  0  0
   -3.3748    3.3417    0.6147 C   0  0  0  0  0  0  0  0  0  0  0  0
   -2.2298    4.6112    0.7727 S   0  0  0  0  0  0  0  0  0  0  0  0
   -0.9166    3.5281    0.5434 C   0  0  0  0  0  0  0  0  0  0  0  0
   -1.3738    2.2534    0.3563 C   0  0  0  0  0  0  0  0  0  0  0  0
   -0.5781    1.0540    0.1295 C   0  0  0  0  0  0  0  0  0  0  0  0
    0.8596    0.9861    0.0591 C   0  0  0  0  0  0  0  0  0  0  0  0
    1.9076    1.9147    0.1660 C   0  0  0  0  0  0  0  0  0  0  0  0
    3.2101    1.5521    0.0535 N   0  0  0  0  0  0  0  0  0  0  0  0
    3.5519    0.2624   -0.1693 C   0  0  0  0  0  0  0  0  0  0  0  0
    2.5833   -0.7212   -0.2885 C   0  0  0  0  0  0  0  0  0  0  0  0
    1.2391   -0.3344   -0.1703 C   0  0  0  0  0  0  0  0  0  0  0  0
   -0.1027   -1.3810   -0.2841 S   0  0  0  0  0  0  0  0  0  0  0  0
   -1.2843   -0.1449   -0.0351 C   0  0  0  0  0  0  0  0  0  0  0  0
   -2.7222   -0.2441    0.0084 C   0  0  0  0  0  0  0  0  0  0  0  0
   -3.4827   -1.5315   -0.1680 C   0  0  0  0  0  0  0  0  0  0  0  0
   -3.0279   -2.7849   -0.3885 C   0  0  0  0  0  0  0  0  0  0  0  0
    5.0004   -0.0396   -0.2781 C   0  0  0  0  0  0  0  0  0  0  0  0
    5.9785    0.9508   -0.1583 C   0  0  0  0  0  0  0  0  0  0  0  0
    7.3249    0.6076   -0.2694 C   0  0  0  0  0  0  0  0  0  0  0  0
    7.6715   -0.7161   -0.4980 C   0  0  0  0  0  0  0  0  0  0  0  0
    6.6529   -1.6450   -0.6062 C   0  0  0  0  0  0  0  0  0  0  0  0
    5.3398   -1.3406   -0.5027 N   0  0  0  0  0  0  0  0  0  0  0  0
   -4.3989   -5.0242    0.5787 H   0  0  0  0  0  0  0  0  0  0  0  0
   -4.5002   -4.6252   -1.8969 H   0  0  0  0  0  0  0  0  0  0  0  0
   -6.6735   -2.8323   -0.2468 H   0  0  0  0  0  0  0  0  0  0  0  0
   -6.7596   -0.2567    0.1720 H   0  0  0  0  0  0  0  0  0  0  0  0
   -5.5517    1.8081    0.4559 H   0  0  0  0  0  0  0  0  0  0  0  0
   -4.4185    3.6049    0.7003 H   0  0  0  0  0  0  0  0  0  0  0  0
    0.0717    3.9478    0.5705 H   0  0  0  0  0  0  0  0  0  0  0  0
    1.7764    2.9715    0.3425 H   0  0  0  0  0  0  0  0  0  0  0  0
    2.8526   -1.7573   -0.4673 H   0  0  0  0  0  0  0  0  0  0  0  0
   -2.0257   -3.1528   -0.4886 H   0  0  0  0  0  0  0  0  0  0  0  0
    5.6973    1.9846    0.0207 H   0  0  0  0  0  0  0  0  0  0  0  0
    8.0920    1.3711   -0.1776 H   0  0  0  0  0  0  0  0  0  0  0  0
    8.7090   -1.0167   -0.5895 H   0  0  0  0  0  0  0  0  0  0  0  0
    6.8708   -2.6941   -0.7850 H   0  0  0  0  0  0  0  0  0  0  0  0
  1  2  1  0
  2  3  2  0
  3  4  1  0
  4  5  2  0
  5  6  1  0
  6  7  1  0
  7  8  2  0
  8  9  1  0
  9 10  1  0
 10 11  2  0
 11 12  1  0
 12 13  1  0
 13 14  2  0
 14 15  1  0
 15 16  2  0
 16 17  1  0
 17 18  2  0
 18 19  1  0
 19 20  1  0
 20 21  1  0
 21 22  1  0
 22 23  2  0
 16 24  1  0
 24 25  2  0
 25 26  1  0
 26 27  2  0
 27 28  1  0
 28 29  2  0
 23  1  1  0
 29 24  1  0
 22  3  1  0
 21  6  2  0
 11  7  1  0
 20 12  2  0
 18 13  1  0
  1 30  1  0
  1 31  1  0
  2 32  1  0
  4 33  1  0
  5 34  1  0
  8 35  1  0
 10 36  1  0
 14 37  1  0
 17 38  1  0
 23 39  1  0
 25 40  1  0
 26 41  1  0
 27 42  1  0
 28 43  1  0
M  END
