
     RDKit          3D

 42 48  0  0  0  0  0  0  0  0999 V2000
    7.1663    0.5743   -1.4060 C   0  0  0  0  0  0  0  0  0  0  0  0
    7.2006   -0.7917   -1.5679 C   0  0  0  0  0  0  0  0  0  0  0  0
    5.6224   -1.4319   -1.3973 S   0  0  0  0  0  0  0  0  0  0  0  0
    5.0058    0.1605   -1.1140 C   0  0  0  0  0  0  0  0  0  0  0  0
    5.9227    1.1122   -1.1475 N   0  0  0  0  0  0  0  0  0  0  0  0
    3.5645    0.3709   -0.8881 C   0  0  0  0  0  0  0  0  0  0  0  0
    2.7846   -0.4718   -0.1024 C   0  0  0  0  0  0  0  0  0  0  0  0
    1.3970   -0.2317    0.0983 C   0  0  0  0  0  0  0  0  0  0  0  0
    0.5767   -1.0346    0.9468 C   0  0  0  0  0  0  0  0  0  0  0  0
    1.1068   -2.0980    1.7325 C   0  0  0  0  0  0  0  0  0  0  0  0
    0.3470   -2.8087    2.6579 C   0  0  0  0  0  0  0  0  0  0  0  0
   -0.9682   -2.4550    2.8514 C   0  0  0  0  0  0  0  0  0  0  0  0
   -1.5197   -1.4371    2.0739 C   0  0  0  0  0  0  0  0  0  0  0  0
   -0.8137   -0.7516    1.0524 C   0  0  0  0  0  0  0  0  0  0  0  0
   -1.4417    0.2554    0.2242 C   0  0  0  0  0  0  0  0  0  0  0  0
   -0.5741    1.1694   -0.4215 C   0  0  0  0  0  0  0  0  0  0  0  0
   -1.1358    2.3585   -0.9416 C   0  0  0  0  0  0  0  0  0  0  0  0
   -2.5007    2.6339   -0.9234 C   0  0  0  0  0  0  0  0  0  0  0  0
   -3.4070    1.6800   -0.5010 C   0  0  0  0  0  0  0  0  0  0  0  0
   -4.7867    1.9950   -0.6363 C   0  0  0  0  0  0  0  0  0  0  0  0
   -5.8248    1.0988   -0.3722 C   0  0  0  0  0  0  0  0  0  0  0  0
   -5.4141   -0.1971   -0.0212 C   0  0  0  0  0  0  0  0  0  0  0  0
   -6.2500   -1.2267    0.1834 N   0  0  0  0  0  0  0  0  0  0  0  0
   -5.3014   -2.5515    0.4651 S   0  0  0  0  0  0  0  0  0  0  0  0
   -3.8008   -1.8698    0.3719 N   0  0  0  0  0  0  0  0  0  0  0  0
   -3.9508   -0.5499    0.1502 C   0  0  0  0  0  0  0  0  0  0  0  0
   -2.8902    0.4427    0.0057 C   0  0  0  0  0  0  0  0  0  0  0  0
    0.8296    0.8915   -0.5372 C   0  0  0  0  0  0  0  0  0  0  0  0
    1.7219    1.6770   -1.2985 C   0  0  0  0  0  0  0  0  0  0  0  0
    3.0432    1.4555   -1.4834 N   0  0  0  0  0  0  0  0  0  0  0  0
    8.0238    1.2333   -1.4676 H   0  0  0  0  0  0  0  0  0  0  0  0
    8.0516   -1.4234   -1.7766 H   0  0  0  0  0  0  0  0  0  0  0  0
    3.2758   -1.3144    0.3692 H   0  0  0  0  0  0  0  0  0  0  0  0
    2.1517   -2.3856    1.6663 H   0  0  0  0  0  0  0  0  0  0  0  0
    0.7972   -3.6034    3.2457 H   0  0  0  0  0  0  0  0  0  0  0  0
   -1.5726   -2.9555    3.6024 H   0  0  0  0  0  0  0  0  0  0  0  0
   -2.5403   -1.1545    2.3193 H   0  0  0  0  0  0  0  0  0  0  0  0
   -0.5088    3.1413   -1.3625 H   0  0  0  0  0  0  0  0  0  0  0  0
   -2.8348    3.5914   -1.3209 H   0  0  0  0  0  0  0  0  0  0  0  0
   -5.0749    2.9874   -0.9905 H   0  0  0  0  0  0  0  0  0  0  0  0
   -6.8684    1.3595   -0.4954 H   0  0  0  0  0  0  0  0  0  0  0  0
    1.3902    2.5555   -1.8436 H   0  0  0  0  0  0  0  0  0  0  0  0
  1  2  2  0
  2  3  1  0
  3  4  1  0
  4  5  2  0
  4  6  1  0
  6  7  2  0
  7  8  1  0
  8  9  2  0
  9 10  1  0
 10 11  2  0
 11 12  1  0
 12 13  2  0
 13 14  1  0
 14 15  2  0
 15 16  1  0
 16 17  1  0
 17 18  2  0
 18 19  1  0
 19 20  1  0
 20 21  2  0
 21 22  1  0
 22 23  2  0
 23 24  1  0
 24 25  1  0
 25 26  2  0
 26 27  1  0
 16 28  2  0
 28 29  1  0
 29 30  2  0
  5  1  1  0
 30  6  1  0
 28  8  1  0
 14  9  1  0
 27 15  1  0
 27 19  2  0
 26 22  1  0
  1 31  1  0
  2 32  1  0
  7 33  1  0
 10 34  1  0
 11 35  1  0
 12 36  1  0
 13 37  1  0
 17 38  1  0
 18 39  1  0
 20 40  1  0
 21 41  1  0
 29 42  1  0
M  END
