
     RDKit          3D

 39 45  0  0  0  0  0  0  0  0999 V2000
    6.7718   -1.8596   -0.0475 C   0  0  0  0  0  0  0  0  0  0  0  0
    7.1934   -0.6763   -0.6083 C   0  0  0  0  0  0  0  0  0  0  0  0
    5.8412    0.3216   -0.9312 S   0  0  0  0  0  0  0  0  0  0  0  0
    4.7864   -0.8954   -0.2947 C   0  0  0  0  0  0  0  0  0  0  0  0
    5.4097   -1.9813    0.1305 N   0  0  0  0  0  0  0  0  0  0  0  0
    3.3251   -0.6904   -0.2778 C   0  0  0  0  0  0  0  0  0  0  0  0
    2.7265    0.5431   -0.0924 C   0  0  0  0  0  0  0  0  0  0  0  0
    1.3130    0.6116   -0.0840 C   0  0  0  0  0  0  0  0  0  0  0  0
    0.5672    1.8009    0.0223 C   0  0  0  0  0  0  0  0  0  0  0  0
    1.0627    3.0743    0.1527 C   0  0  0  0  0  0  0  0  0  0  0  0
    0.0346    3.9639    0.2159 O   0  0  0  0  0  0  0  0  0  0  0  0
   -1.1253    3.2507    0.1200 C   0  0  0  0  0  0  0  0  0  0  0  0
   -0.8566    1.9096   -0.0190 C   0  0  0  0  0  0  0  0  0  0  0  0
   -1.7490    0.8323   -0.1342 C   0  0  0  0  0  0  0  0  0  0  0  0
   -3.1631    0.9503   -0.2261 C   0  0  0  0  0  0  0  0  0  0  0  0
   -4.0359    2.0182   -0.3248 N   0  0  0  0  0  0  0  0  0  0  0  0
   -5.3429    1.5841   -0.3940 C   0  0  0  0  0  0  0  0  0  0  0  0
   -5.3492    0.2081   -0.3459 C   0  0  0  0  0  0  0  0  0  0  0  0
   -4.0030   -0.1464   -0.2556 C   0  0  0  0  0  0  0  0  0  0  0  0
   -3.4146   -1.4312   -0.1513 C   0  0  0  0  0  0  0  0  0  0  0  0
   -4.1399   -2.5855   -0.0876 C   0  0  0  0  0  0  0  0  0  0  0  0
   -3.0629   -3.8951    0.1530 S   0  0  0  0  0  0  0  0  0  0  0  0
   -1.6900   -2.8432    0.1741 C   0  0  0  0  0  0  0  0  0  0  0  0
   -1.9940   -1.5201   -0.0886 C   0  0  0  0  0  0  0  0  0  0  0  0
   -1.0310   -0.4470   -0.1489 C   0  0  0  0  0  0  0  0  0  0  0  0
    0.4744   -0.5345   -0.2101 C   0  0  0  0  0  0  0  0  0  0  0  0
    1.2294   -1.6939   -0.4472 C   0  0  0  0  0  0  0  0  0  0  0  0
    2.5872   -1.8052   -0.4695 N   0  0  0  0  0  0  0  0  0  0  0  0
    7.4182   -2.6755    0.2524 H   0  0  0  0  0  0  0  0  0  0  0  0
    8.2009   -0.3629   -0.8401 H   0  0  0  0  0  0  0  0  0  0  0  0
    3.3240    1.4361    0.0456 H   0  0  0  0  0  0  0  0  0  0  0  0
    2.0499    3.5095    0.2173 H   0  0  0  0  0  0  0  0  0  0  0  0
   -2.0111    3.8609    0.1854 H   0  0  0  0  0  0  0  0  0  0  0  0
   -3.7693    2.9885   -0.3754 H   0  0  0  0  0  0  0  0  0  0  0  0
   -6.1519    2.2982   -0.4740 H   0  0  0  0  0  0  0  0  0  0  0  0
   -6.2241   -0.4266   -0.3767 H   0  0  0  0  0  0  0  0  0  0  0  0
   -5.2079   -2.7437   -0.1349 H   0  0  0  0  0  0  0  0  0  0  0  0
   -0.7521   -3.3126    0.4184 H   0  0  0  0  0  0  0  0  0  0  0  0
    0.7585   -2.6355   -0.7024 H   0  0  0  0  0  0  0  0  0  0  0  0
  1  2  2  0
  2  3  1  0
  3  4  1  0
  4  5  2  0
  4  6  1  0
  6  7  2  0
  7  8  1  0
  8  9  1  0
  9 10  2  0
 10 11  1  0
 11 12  1  0
 12 13  2  0
 13 14  1  0
 14 15  1  0
 15 16  1  0
 16 17  1  0
 17 18  2  0
 18 19  1  0
 19 20  1  0
 20 21  2  0
 21 22  1  0
 22 23  1  0
 23 24  2  0
 24 25  1  0
 25 26  1  0
 26 27  1  0
 27 28  2  0
  5  1  1  0
 28  6  1  0
 26  8  2  0
 13  9  1  0
 25 14  2  0
 19 15  2  0
 24 20  1  0
  1 29  1  0
  2 30  1  0
  7 31  1  0
 10 32  1  0
 12 33  1  0
 16 34  1  0
 17 35  1  0
 18 36  1  0
 21 37  1  0
 23 38  1  0
 27 39  1  0
M  END
