
     RDKit          3D

 27 31  0  0  0  0  0  0  0  0999 V2000
    5.4934   -0.7723    0.1745 C   0  0  0  0  0  0  0  0  0  0  0  0
    5.7964    0.5303    0.4991 C   0  0  0  0  0  0  0  0  0  0  0  0
    4.3547    1.4483    0.5939 S   0  0  0  0  0  0  0  0  0  0  0  0
    3.4344    0.0459    0.1962 C   0  0  0  0  0  0  0  0  0  0  0  0
    4.1511   -1.0456    0.0028 N   0  0  0  0  0  0  0  0  0  0  0  0
    1.9926    0.0228    0.0741 C   0  0  0  0  0  0  0  0  0  0  0  0
    1.2336   -1.0902   -0.2437 C   0  0  0  0  0  0  0  0  0  0  0  0
   -0.1377   -0.7701   -0.2810 C   0  0  0  0  0  0  0  0  0  0  0  0
   -1.1790   -1.7127   -0.5825 C   0  0  0  0  0  0  0  0  0  0  0  0
   -0.9282   -2.9844   -0.8552 N   0  0  0  0  0  0  0  0  0  0  0  0
   -2.4579   -3.6103   -1.1232 S   0  0  0  0  0  0  0  0  0  0  0  0
   -3.3940   -2.2431   -0.8840 N   0  0  0  0  0  0  0  0  0  0  0  0
   -2.5487   -1.2334   -0.5830 C   0  0  0  0  0  0  0  0  0  0  0  0
   -2.9011    0.1208   -0.2995 C   0  0  0  0  0  0  0  0  0  0  0  0
   -4.2256    0.5903   -0.2986 C   0  0  0  0  0  0  0  0  0  0  0  0
   -4.4399    1.9251   -0.0084 C   0  0  0  0  0  0  0  0  0  0  0  0
   -3.4520    2.8031    0.2738 N   0  0  0  0  0  0  0  0  0  0  0  0
   -2.1804    2.3325    0.2684 C   0  0  0  0  0  0  0  0  0  0  0  0
   -1.8332    1.0053   -0.0093 C   0  0  0  0  0  0  0  0  0  0  0  0
   -0.4775    0.5415   -0.0064 C   0  0  0  0  0  0  0  0  0  0  0  0
    0.9925    1.4029    0.3111 S   0  0  0  0  0  0  0  0  0  0  0  0
    6.2164   -1.5694    0.0494 H   0  0  0  0  0  0  0  0  0  0  0  0
    6.7655    0.9725    0.6794 H   0  0  0  0  0  0  0  0  0  0  0  0
    1.6630   -2.0685   -0.4343 H   0  0  0  0  0  0  0  0  0  0  0  0
   -5.0607   -0.0672   -0.5177 H   0  0  0  0  0  0  0  0  0  0  0  0
   -5.4443    2.3398    0.0057 H   0  0  0  0  0  0  0  0  0  0  0  0
   -1.4333    3.0863    0.5025 H   0  0  0  0  0  0  0  0  0  0  0  0
  1  2  2  0
  2  3  1  0
  3  4  1  0
  4  5  2  0
  4  6  1  0
  6  7  2  0
  7  8  1  0
  8  9  1  0
  9 10  2  0
 10 11  1  0
 11 12  1  0
 12 13  2  0
 13 14  1  0
 14 15  2  0
 15 16  1  0
 16 17  2  0
 17 18  1  0
 18 19  2  0
 19 20  1  0
 20 21  1  0
  5  1  1  0
 21  6  1  0
 20  8  2  0
 13  9  1  0
 19 14  1  0
  1 22  1  0
  2 23  1  0
  7 24  1  0
 15 25  1  0
 16 26  1  0
 18 27  1  0
M  END
