
     RDKit          3D

 40 46  0  0  0  0  0  0  0  0999 V2000
    6.7793   -2.2012    0.5204 C   0  0  0  0  0  0  0  0  0  0  0  0
    7.3447   -1.0802    1.0834 C   0  0  0  0  0  0  0  0  0  0  0  0
    6.1610    0.1465    1.2327 S   0  0  0  0  0  0  0  0  0  0  0  0
    4.9947   -0.8869    0.4933 C   0  0  0  0  0  0  0  0  0  0  0  0
    5.4386   -2.0980    0.2074 N   0  0  0  0  0  0  0  0  0  0  0  0
    3.6036   -0.4833    0.3144 C   0  0  0  0  0  0  0  0  0  0  0  0
    2.5509   -1.3939    0.5000 C   0  0  0  0  0  0  0  0  0  0  0  0
    1.1763   -1.0758    0.3404 C   0  0  0  0  0  0  0  0  0  0  0  0
    0.2515   -2.0885    0.5053 C   0  0  0  0  0  0  0  0  0  0  0  0
   -1.0841   -1.9649    0.3622 N   0  0  0  0  0  0  0  0  0  0  0  0
   -1.6447   -0.7743    0.0969 C   0  0  0  0  0  0  0  0  0  0  0  0
   -3.0903   -0.7629   -0.0276 C   0  0  0  0  0  0  0  0  0  0  0  0
   -3.8430   -1.9563    0.0661 C   0  0  0  0  0  0  0  0  0  0  0  0
   -5.2404   -1.9898   -0.0540 C   0  0  0  0  0  0  0  0  0  0  0  0
   -5.9563   -0.8189   -0.2719 C   0  0  0  0  0  0  0  0  0  0  0  0
   -5.2778    0.3893   -0.3668 C   0  0  0  0  0  0  0  0  0  0  0  0
   -3.8654    0.4141   -0.2468 C   0  0  0  0  0  0  0  0  0  0  0  0
   -3.0440    1.5521   -0.2877 C   0  0  0  0  0  0  0  0  0  0  0  0
   -3.4777    2.8512   -0.4035 C   0  0  0  0  0  0  0  0  0  0  0  0
   -2.3681    3.6515   -0.3184 N   0  0  0  0  0  0  0  0  0  0  0  0
   -1.2465    2.8741   -0.1321 C   0  0  0  0  0  0  0  0  0  0  0  0
   -1.6166    1.5507   -0.1819 C   0  0  0  0  0  0  0  0  0  0  0  0
   -0.7950    0.3851   -0.0376 C   0  0  0  0  0  0  0  0  0  0  0  0
    0.6644    0.2076    0.0056 C   0  0  0  0  0  0  0  0  0  0  0  0
    1.7324    1.1505   -0.3054 C   0  0  0  0  0  0  0  0  0  0  0  0
    1.5896    2.3864   -0.8111 N   0  0  0  0  0  0  0  0  0  0  0  0
    3.0825    3.0505   -1.0092 S   0  0  0  0  0  0  0  0  0  0  0  0
    4.0281    1.8078   -0.4866 N   0  0  0  0  0  0  0  0  0  0  0  0
    3.2114    0.7971   -0.1386 C   0  0  0  0  0  0  0  0  0  0  0  0
    7.3004   -3.1296    0.3201 H   0  0  0  0  0  0  0  0  0  0  0  0
    8.3629   -0.9302    1.4113 H   0  0  0  0  0  0  0  0  0  0  0  0
    2.8247   -2.4156    0.7808 H   0  0  0  0  0  0  0  0  0  0  0  0
    0.5616   -3.1031    0.7514 H   0  0  0  0  0  0  0  0  0  0  0  0
   -3.3291   -2.9030    0.2351 H   0  0  0  0  0  0  0  0  0  0  0  0
   -5.7625   -2.9403    0.0243 H   0  0  0  0  0  0  0  0  0  0  0  0
   -7.0383   -0.8482   -0.3636 H   0  0  0  0  0  0  0  0  0  0  0  0
   -5.8374    1.3050   -0.5305 H   0  0  0  0  0  0  0  0  0  0  0  0
   -4.4611    3.2878   -0.5098 H   0  0  0  0  0  0  0  0  0  0  0  0
   -2.3731    4.6632   -0.3422 H   0  0  0  0  0  0  0  0  0  0  0  0
   -0.3075    3.3745    0.0344 H   0  0  0  0  0  0  0  0  0  0  0  0
  1  2  2  0
  2  3  1  0
  3  4  1  0
  4  5  2  0
  4  6  1  0
  6  7  2  0
  7  8  1  0
  8  9  2  0
  9 10  1  0
 10 11  2  0
 11 12  1  0
 12 13  2  0
 13 14  1  0
 14 15  2  0
 15 16  1  0
 16 17  2  0
 17 18  1  0
 18 19  2  0
 19 20  1  0
 20 21  1  0
 21 22  2  0
 22 23  1  0
 23 24  2  0
 24 25  1  0
 25 26  2  0
 26 27  1  0
 27 28  1  0
 28 29  2  0
  5  1  1  0
 29  6  1  0
 24  8  1  0
 29 25  1  0
 23 11  1  0
 17 12  1  0
 22 18  1  0
  1 30  1  0
  2 31  1  0
  7 32  1  0
  9 33  1  0
 13 34  1  0
 14 35  1  0
 15 36  1  0
 16 37  1  0
 19 38  1  0
 20 39  1  0
 21 40  1  0
M  END
