
     RDKit          3D

 33 38  0  0  0  0  0  0  0  0999 V2000
    6.6494    0.3854   -1.0608 C   0  0  0  0  0  0  0  0  0  0  0  0
    7.0096   -0.0251    0.2036 C   0  0  0  0  0  0  0  0  0  0  0  0
    5.6018   -0.3380    1.1290 S   0  0  0  0  0  0  0  0  0  0  0  0
    4.6280    0.0960   -0.2219 C   0  0  0  0  0  0  0  0  0  0  0  0
    5.2914    0.4536   -1.3008 N   0  0  0  0  0  0  0  0  0  0  0  0
    3.1905    0.0758   -0.1930 C   0  0  0  0  0  0  0  0  0  0  0  0
    2.3143    0.4055   -1.2223 C   0  0  0  0  0  0  0  0  0  0  0  0
    1.0431    0.2132   -0.6632 C   0  0  0  0  0  0  0  0  0  0  0  0
   -0.2522    0.3305   -1.0521 O   0  0  0  0  0  0  0  0  0  0  0  0
   -0.9798   -0.0351    0.0502 C   0  0  0  0  0  0  0  0  0  0  0  0
   -0.1723   -0.3815    1.1289 C   0  0  0  0  0  0  0  0  0  0  0  0
   -0.7694   -0.7756    2.3212 C   0  0  0  0  0  0  0  0  0  0  0  0
   -2.1263   -0.8209    2.4287 N   0  0  0  0  0  0  0  0  0  0  0  0
   -2.9192   -0.4890    1.3943 C   0  0  0  0  0  0  0  0  0  0  0  0
   -4.3367   -0.5551    1.5641 C   0  0  0  0  0  0  0  0  0  0  0  0
   -5.3235   -0.2428    0.5855 C   0  0  0  0  0  0  0  0  0  0  0  0
   -4.7170    0.1484   -0.5977 C   0  0  0  0  0  0  0  0  0  0  0  0
   -5.3276    0.5245   -1.7629 C   0  0  0  0  0  0  0  0  0  0  0  0
   -4.3731    0.8360   -2.6943 O   0  0  0  0  0  0  0  0  0  0  0  0
   -3.1473    0.6541   -2.1092 C   0  0  0  0  0  0  0  0  0  0  0  0
   -3.3142    0.2306   -0.8170 C   0  0  0  0  0  0  0  0  0  0  0  0
   -2.3610   -0.0784    0.1506 C   0  0  0  0  0  0  0  0  0  0  0  0
    1.1297   -0.2041    0.6161 C   0  0  0  0  0  0  0  0  0  0  0  0
    2.4604   -0.2949    0.9246 N   0  0  0  0  0  0  0  0  0  0  0  0
    7.3399    0.6493   -1.8527 H   0  0  0  0  0  0  0  0  0  0  0  0
    8.0010   -0.1516    0.6138 H   0  0  0  0  0  0  0  0  0  0  0  0
    2.5747    0.7331   -2.2190 H   0  0  0  0  0  0  0  0  0  0  0  0
   -0.2109   -1.0603    3.2055 H   0  0  0  0  0  0  0  0  0  0  0  0
   -4.6930   -0.8782    2.5448 H   0  0  0  0  0  0  0  0  0  0  0  0
   -6.3862   -0.3106    0.7685 H   0  0  0  0  0  0  0  0  0  0  0  0
   -6.3514    0.6250   -2.0943 H   0  0  0  0  0  0  0  0  0  0  0  0
   -2.2949    0.8665   -2.7397 H   0  0  0  0  0  0  0  0  0  0  0  0
    2.8226   -0.5861    1.8240 H   0  0  0  0  0  0  0  0  0  0  0  0
  1  2  2  0
  2  3  1  0
  3  4  1  0
  4  5  2  0
  4  6  1  0
  6  7  2  0
  7  8  1  0
  8  9  1  0
  9 10  1  0
 10 11  2  0
 11 12  1  0
 12 13  2  0
 13 14  1  0
 14 15  1  0
 15 16  2  0
 16 17  1  0
 17 18  2  0
 18 19  1  0
 19 20  1  0
 20 21  2  0
 21 22  1  0
 11 23  1  0
 23 24  1  0
  5  1  1  0
 24  6  1  0
 23  8  2  0
 22 10  1  0
 22 14  2  0
 21 17  1  0
  1 25  1  0
  2 26  1  0
  7 27  1  0
 12 28  1  0
 15 29  1  0
 16 30  1  0
 18 31  1  0
 20 32  1  0
 24 33  1  0
M  END
