
     RDKit          3D

 40 44  0  0  0  0  0  0  0  0999 V2000
    8.4549   -0.2910    0.5448 C   0  0  0  0  0  0  0  0  0  0  0  0
    8.6467   -1.2290   -0.4425 C   0  0  0  0  0  0  0  0  0  0  0  0
    7.1404   -1.6474   -1.1360 S   0  0  0  0  0  0  0  0  0  0  0  0
    6.3359   -0.5487   -0.0720 C   0  0  0  0  0  0  0  0  0  0  0  0
    7.1458    0.0925    0.7527 N   0  0  0  0  0  0  0  0  0  0  0  0
    4.8764   -0.3573   -0.0970 C   0  0  0  0  0  0  0  0  0  0  0  0
    4.2778    0.5485    0.7839 C   0  0  0  0  0  0  0  0  0  0  0  0
    2.8939    0.7430    0.7739 C   0  0  0  0  0  0  0  0  0  0  0  0
    2.1022    0.0272   -0.1229 C   0  0  0  0  0  0  0  0  0  0  0  0
    2.6611   -0.8608   -0.9900 N   0  0  0  0  0  0  0  0  0  0  0  0
    4.0107   -1.0272   -0.9556 C   0  0  0  0  0  0  0  0  0  0  0  0
    0.6290    0.1890   -0.1828 C   0  0  0  0  0  0  0  0  0  0  0  0
   -0.1619   -0.5263   -1.0829 C   0  0  0  0  0  0  0  0  0  0  0  0
   -1.5450   -0.3333   -1.0947 C   0  0  0  0  0  0  0  0  0  0  0  0
   -2.1375    0.5677   -0.2086 C   0  0  0  0  0  0  0  0  0  0  0  0
   -1.2739    1.2395    0.6515 C   0  0  0  0  0  0  0  0  0  0  0  0
    0.0731    1.0763    0.6868 N   0  0  0  0  0  0  0  0  0  0  0  0
   -3.5707    0.8105   -0.1937 C   0  0  0  0  0  0  0  0  0  0  0  0
   -4.1788    2.0753   -0.4288 C   0  0  0  0  0  0  0  0  0  0  0  0
   -5.5995    2.3150   -0.4172 C   0  0  0  0  0  0  0  0  0  0  0  0
   -6.5703    1.3204   -0.1649 C   0  0  0  0  0  0  0  0  0  0  0  0
   -5.9603    0.0961    0.0694 C   0  0  0  0  0  0  0  0  0  0  0  0
   -6.6061   -1.0769    0.3619 C   0  0  0  0  0  0  0  0  0  0  0  0
   -5.6315   -2.0360    0.5394 N   0  0  0  0  0  0  0  0  0  0  0  0
   -4.3789   -1.4842    0.3636 C   0  0  0  0  0  0  0  0  0  0  0  0
   -4.5542   -0.1556    0.0575 C   0  0  0  0  0  0  0  0  0  0  0  0
    9.2385    0.1507    1.1485 H   0  0  0  0  0  0  0  0  0  0  0  0
    9.5719   -1.6741   -0.7784 H   0  0  0  0  0  0  0  0  0  0  0  0
    4.8857    1.1133    1.4888 H   0  0  0  0  0  0  0  0  0  0  0  0
    2.4443    1.4508    1.4650 H   0  0  0  0  0  0  0  0  0  0  0  0
    4.3660   -1.7533   -1.6814 H   0  0  0  0  0  0  0  0  0  0  0  0
    0.2898   -1.2294   -1.7768 H   0  0  0  0  0  0  0  0  0  0  0  0
   -2.1539   -0.8866   -1.8062 H   0  0  0  0  0  0  0  0  0  0  0  0
   -1.6558    1.9560    1.3755 H   0  0  0  0  0  0  0  0  0  0  0  0
   -3.5342    2.9289   -0.6466 H   0  0  0  0  0  0  0  0  0  0  0  0
   -5.9438    3.3302   -0.6179 H   0  0  0  0  0  0  0  0  0  0  0  0
   -7.6336    1.5101   -0.1554 H   0  0  0  0  0  0  0  0  0  0  0  0
   -7.6529   -1.3263    0.4687 H   0  0  0  0  0  0  0  0  0  0  0  0
   -5.8081   -3.0039    0.7750 H   0  0  0  0  0  0  0  0  0  0  0  0
   -3.4932   -2.0939    0.4804 H   0  0  0  0  0  0  0  0  0  0  0  0
  1  2  2  0
  2  3  1  0
  3  4  1  0
  4  5  2  0
  4  6  1  0
  6  7  2  0
  7  8  1  0
  8  9  2  0
  9 10  1  0
 10 11  2  0
  9 12  1  0
 12 13  2  0
 13 14  1  0
 14 15  2  0
 15 16  1  0
 16 17  2  0
 15 18  1  0
 18 19  2  0
 19 20  1  0
 20 21  2  0
 21 22  1  0
 22 23  2  0
 23 24  1  0
 24 25  1  0
 25 26  2  0
  5  1  1  0
 11  6  1  0
 17 12  1  0
 26 18  1  0
 26 22  1  0
  1 27  1  0
  2 28  1  0
  7 29  1  0
  8 30  1  0
 11 31  1  0
 13 32  1  0
 14 33  1  0
 16 34  1  0
 19 35  1  0
 20 36  1  0
 21 37  1  0
 23 38  1  0
 24 39  1  0
 25 40  1  0
M  END
