
     RDKit          3D

 35 39  0  0  0  0  0  0  0  0999 V2000
    7.7960   -0.3375    0.0525 C   0  0  0  0  0  0  0  0  0  0  0  0
    7.7480    0.9187   -0.5074 C   0  0  0  0  0  0  0  0  0  0  0  0
    6.1165    1.3890   -0.7235 S   0  0  0  0  0  0  0  0  0  0  0  0
    5.5942   -0.1128   -0.0571 C   0  0  0  0  0  0  0  0  0  0  0  0
    6.5718   -0.9223    0.3086 N   0  0  0  0  0  0  0  0  0  0  0  0
    4.2087   -0.4947    0.1054 C   0  0  0  0  0  0  0  0  0  0  0  0
    3.7609   -1.7050    0.6066 C   0  0  0  0  0  0  0  0  0  0  0  0
    2.3392   -1.7986    0.6496 C   0  0  0  0  0  0  0  0  0  0  0  0
    1.7274   -0.6601    0.1669 C   0  0  0  0  0  0  0  0  0  0  0  0
    2.8819    0.5155   -0.2961 S   0  0  0  0  0  0  0  0  0  0  0  0
    0.3079   -0.3661    0.0725 C   0  0  0  0  0  0  0  0  0  0  0  0
   -0.5461   -0.3396    1.1731 C   0  0  0  0  0  0  0  0  0  0  0  0
   -1.8922   -0.0851    1.1747 N   0  0  0  0  0  0  0  0  0  0  0  0
   -2.5864    0.1752    0.0115 C   0  0  0  0  0  0  0  0  0  0  0  0
   -4.0279    0.4389    0.1214 C   0  0  0  0  0  0  0  0  0  0  0  0
   -4.5489    1.0378    1.2855 C   0  0  0  0  0  0  0  0  0  0  0  0
   -5.9151    1.2993    1.4295 C   0  0  0  0  0  0  0  0  0  0  0  0
   -6.7983    0.9605    0.4105 C   0  0  0  0  0  0  0  0  0  0  0  0
   -6.3156    0.3571   -0.7463 C   0  0  0  0  0  0  0  0  0  0  0  0
   -4.9473    0.0968   -0.8861 C   0  0  0  0  0  0  0  0  0  0  0  0
   -1.8323    0.1814   -1.2002 C   0  0  0  0  0  0  0  0  0  0  0  0
   -2.2695    0.4281   -2.4502 N   0  0  0  0  0  0  0  0  0  0  0  0
   -0.9686    0.2932   -3.4622 S   0  0  0  0  0  0  0  0  0  0  0  0
    0.2214   -0.0876   -2.3803 N   0  0  0  0  0  0  0  0  0  0  0  0
   -0.3423   -0.1049   -1.1580 C   0  0  0  0  0  0  0  0  0  0  0  0
    8.7025   -0.8780    0.2967 H   0  0  0  0  0  0  0  0  0  0  0  0
    8.5677    1.5625   -0.7914 H   0  0  0  0  0  0  0  0  0  0  0  0
    4.4344   -2.4922    0.9280 H   0  0  0  0  0  0  0  0  0  0  0  0
    1.8001   -2.6681    1.0075 H   0  0  0  0  0  0  0  0  0  0  0  0
   -0.1467   -0.5292    2.1701 H   0  0  0  0  0  0  0  0  0  0  0  0
   -3.8789    1.3099    2.1004 H   0  0  0  0  0  0  0  0  0  0  0  0
   -6.2840    1.7655    2.3393 H   0  0  0  0  0  0  0  0  0  0  0  0
   -7.8606    1.1616    0.5191 H   0  0  0  0  0  0  0  0  0  0  0  0
   -7.0018    0.0831   -1.5436 H   0  0  0  0  0  0  0  0  0  0  0  0
   -4.6160   -0.3924   -1.7995 H   0  0  0  0  0  0  0  0  0  0  0  0
  1  2  2  0
  2  3  1  0
  3  4  1  0
  4  5  2  0
  4  6  1  0
  6  7  2  0
  7  8  1  0
  8  9  2  0
  9 10  1  0
  9 11  1  0
 11 12  2  0
 12 13  1  0
 13 14  2  0
 14 15  1  0
 15 16  2  0
 16 17  1  0
 17 18  2  0
 18 19  1  0
 19 20  2  0
 14 21  1  0
 21 22  2  0
 22 23  1  0
 23 24  1  0
 24 25  2  0
  5  1  1  0
 10  6  1  0
 25 11  1  0
 20 15  1  0
 25 21  1  0
  1 26  1  0
  2 27  1  0
  7 28  1  0
  8 29  1  0
 12 30  1  0
 16 31  1  0
 17 32  1  0
 18 33  1  0
 19 34  1  0
 20 35  1  0
M  END
