
     RDKit          3D

 31 35  0  0  0  0  0  0  0  0999 V2000
    6.1937   -0.0461   -1.0681 C   0  0  0  0  0  0  0  0  0  0  0  0
    6.3255   -0.7678    0.0949 C   0  0  0  0  0  0  0  0  0  0  0  0
    4.7837   -1.0226    0.7890 S   0  0  0  0  0  0  0  0  0  0  0  0
    4.0449   -0.1527   -0.5096 C   0  0  0  0  0  0  0  0  0  0  0  0
    4.9025    0.3008   -1.4083 N   0  0  0  0  0  0  0  0  0  0  0  0
    2.5824    0.0557   -0.5915 C   0  0  0  0  0  0  0  0  0  0  0  0
    2.0649    0.7736   -1.6796 C   0  0  0  0  0  0  0  0  0  0  0  0
    0.6923    1.0031   -1.8123 C   0  0  0  0  0  0  0  0  0  0  0  0
   -0.2098    0.5202   -0.8573 C   0  0  0  0  0  0  0  0  0  0  0  0
   -1.5900    0.7529   -0.9937 C   0  0  0  0  0  0  0  0  0  0  0  0
   -2.4709    0.2569   -0.0211 C   0  0  0  0  0  0  0  0  0  0  0  0
   -1.9742   -0.4624    1.0731 C   0  0  0  0  0  0  0  0  0  0  0  0
   -0.6022   -0.7034    1.2246 C   0  0  0  0  0  0  0  0  0  0  0  0
    0.2841   -0.2063    0.2492 C   0  0  0  0  0  0  0  0  0  0  0  0
    1.6707   -0.4264    0.3638 C   0  0  0  0  0  0  0  0  0  0  0  0
   -3.0314   -0.8419    1.8856 N   0  0  0  0  0  0  0  0  0  0  0  0
   -4.1914   -0.3770    1.3279 C   0  0  0  0  0  0  0  0  0  0  0  0
   -5.5899   -0.3272    1.4954 C   0  0  0  0  0  0  0  0  0  0  0  0
   -6.0024    0.3882    0.3927 C   0  0  0  0  0  0  0  0  0  0  0  0
   -4.9705    0.7683   -0.4164 O   0  0  0  0  0  0  0  0  0  0  0  0
   -3.8612    0.2761    0.1952 C   0  0  0  0  0  0  0  0  0  0  0  0
    7.0103    0.2569   -1.7120 H   0  0  0  0  0  0  0  0  0  0  0  0
    7.2269   -1.1454    0.5550 H   0  0  0  0  0  0  0  0  0  0  0  0
    2.7368    1.1649   -2.4428 H   0  0  0  0  0  0  0  0  0  0  0  0
    0.3371    1.5654   -2.6734 H   0  0  0  0  0  0  0  0  0  0  0  0
   -1.9861    1.3095   -1.8384 H   0  0  0  0  0  0  0  0  0  0  0  0
   -0.2344   -1.2633    2.0797 H   0  0  0  0  0  0  0  0  0  0  0  0
    2.0285   -0.9881    1.2236 H   0  0  0  0  0  0  0  0  0  0  0  0
   -2.9855   -1.3705    2.7466 H   0  0  0  0  0  0  0  0  0  0  0  0
   -6.2062   -0.7378    2.2806 H   0  0  0  0  0  0  0  0  0  0  0  0
   -6.9781    0.7038    0.0477 H   0  0  0  0  0  0  0  0  0  0  0  0
  1  2  2  0
  2  3  1  0
  3  4  1  0
  4  5  2  0
  4  6  1  0
  6  7  2  0
  7  8  1  0
  8  9  2  0
  9 10  1  0
 10 11  2  0
 11 12  1  0
 12 13  2  0
 13 14  1  0
 14 15  2  0
 12 16  1  0
 16 17  1  0
 17 18  1  0
 18 19  2  0
 19 20  1  0
 20 21  1  0
  5  1  1  0
 15  6  1  0
 21 17  2  0
 14  9  1  0
 21 11  1  0
  1 22  1  0
  2 23  1  0
  7 24  1  0
  8 25  1  0
 10 26  1  0
 13 27  1  0
 15 28  1  0
 16 29  1  0
 18 30  1  0
 19 31  1  0
M  END
