
     RDKit          3D

 48 55  0  0  0  0  0  0  0  0999 V2000
    7.2661    1.7403   -1.4005 C   0  0  0  0  0  0  0  0  0  0  0  0
    7.7246    0.6508   -0.6974 C   0  0  0  0  0  0  0  0  0  0  0  0
    6.4023   -0.1773    0.0032 S   0  0  0  0  0  0  0  0  0  0  0  0
    5.3096    0.9744   -0.6785 C   0  0  0  0  0  0  0  0  0  0  0  0
    5.8978    1.9206   -1.3890 N   0  0  0  0  0  0  0  0  0  0  0  0
    3.8548    0.8903   -0.4798 C   0  0  0  0  0  0  0  0  0  0  0  0
    3.0288    1.8037   -1.0956 C   0  0  0  0  0  0  0  0  0  0  0  0
    1.6810    1.8062   -0.9855 N   0  0  0  0  0  0  0  0  0  0  0  0
    1.0460    0.8745   -0.2350 C   0  0  0  0  0  0  0  0  0  0  0  0
    1.7840   -0.0941    0.4699 C   0  0  0  0  0  0  0  0  0  0  0  0
    3.2017   -0.0580    0.3108 C   0  0  0  0  0  0  0  0  0  0  0  0
    1.1075   -1.0111    1.3371 C   0  0  0  0  0  0  0  0  0  0  0  0
    1.8061   -1.9008    2.2017 C   0  0  0  0  0  0  0  0  0  0  0  0
    1.1654   -2.6943    3.1511 C   0  0  0  0  0  0  0  0  0  0  0  0
   -0.2006   -2.5980    3.2916 C   0  0  0  0  0  0  0  0  0  0  0  0
   -0.9134   -1.7599    2.4359 C   0  0  0  0  0  0  0  0  0  0  0  0
   -0.3142   -1.0161    1.3880 C   0  0  0  0  0  0  0  0  0  0  0  0
   -1.0983   -0.2227    0.4845 C   0  0  0  0  0  0  0  0  0  0  0  0
   -2.5841   -0.3914    0.2299 C   0  0  0  0  0  0  0  0  0  0  0  0
   -3.4177   -1.5463    0.3785 C   0  0  0  0  0  0  0  0  0  0  0  0
   -3.0288   -2.8558    0.5526 C   0  0  0  0  0  0  0  0  0  0  0  0
   -4.1159   -3.6808    0.6164 O   0  0  0  0  0  0  0  0  0  0  0  0
   -5.2216   -2.9131    0.4003 C   0  0  0  0  0  0  0  0  0  0  0  0
   -4.8382   -1.6148    0.1953 C   0  0  0  0  0  0  0  0  0  0  0  0
   -5.6857   -0.5905   -0.1795 C   0  0  0  0  0  0  0  0  0  0  0  0
   -4.9257    0.5497   -0.4781 C   0  0  0  0  0  0  0  0  0  0  0  0
   -3.4718    0.6257   -0.3275 C   0  0  0  0  0  0  0  0  0  0  0  0
   -2.6946    1.7080   -0.7714 C   0  0  0  0  0  0  0  0  0  0  0  0
   -3.1725    2.8439   -1.3860 C   0  0  0  0  0  0  0  0  0  0  0  0
   -2.0886    3.6175   -1.7186 N   0  0  0  0  0  0  0  0  0  0  0  0
   -0.9322    2.9865   -1.3323 C   0  0  0  0  0  0  0  0  0  0  0  0
   -1.2667    1.7879   -0.7401 C   0  0  0  0  0  0  0  0  0  0  0  0
   -0.3756    0.8256   -0.1718 C   0  0  0  0  0  0  0  0  0  0  0  0
    7.8885    2.4407   -1.9441 H   0  0  0  0  0  0  0  0  0  0  0  0
    8.7425    0.3128   -0.5671 H   0  0  0  0  0  0  0  0  0  0  0  0
    3.4281    2.5926   -1.7294 H   0  0  0  0  0  0  0  0  0  0  0  0
    3.8095   -0.7957    0.8222 H   0  0  0  0  0  0  0  0  0  0  0  0
    2.8897   -1.9714    2.1860 H   0  0  0  0  0  0  0  0  0  0  0  0
    1.7421   -3.3444    3.8030 H   0  0  0  0  0  0  0  0  0  0  0  0
   -0.7194   -3.1593    4.0640 H   0  0  0  0  0  0  0  0  0  0  0  0
   -1.9798   -1.6654    2.6349 H   0  0  0  0  0  0  0  0  0  0  0  0
   -2.0781   -3.3630    0.6365 H   0  0  0  0  0  0  0  0  0  0  0  0
   -6.1626   -3.4442    0.3816 H   0  0  0  0  0  0  0  0  0  0  0  0
   -6.7541   -0.6574   -0.3223 H   0  0  0  0  0  0  0  0  0  0  0  0
   -5.4559    1.4133   -0.8772 H   0  0  0  0  0  0  0  0  0  0  0  0
   -4.1698    3.1803   -1.6306 H   0  0  0  0  0  0  0  0  0  0  0  0
   -2.1298    4.5149   -2.1839 H   0  0  0  0  0  0  0  0  0  0  0  0
    0.0197    3.4655   -1.5147 H   0  0  0  0  0  0  0  0  0  0  0  0
  1  2  2  0
  2  3  1  0
  3  4  1  0
  4  5  2  0
  4  6  1  0
  6  7  2  0
  7  8  1  0
  8  9  2  0
  9 10  1  0
 10 11  2  0
 10 12  1  0
 12 13  2  0
 13 14  1  0
 14 15  2  0
 15 16  1  0
 16 17  2  0
 17 18  1  0
 18 19  1  0
 19 20  1  0
 20 21  2  0
 21 22  1  0
 22 23  1  0
 23 24  2  0
 24 25  1  0
 25 26  2  0
 26 27  1  0
 27 28  1  0
 28 29  2  0
 29 30  1  0
 30 31  1  0
 31 32  2  0
 32 33  1  0
  5  1  1  0
 11  6  1  0
 17 12  1  0
 33 18  2  0
 33  9  1  0
 27 19  2  0
 32 28  1  0
 24 20  1  0
  1 34  1  0
  2 35  1  0
  7 36  1  0
 11 37  1  0
 13 38  1  0
 14 39  1  0
 15 40  1  0
 16 41  1  0
 21 42  1  0
 23 43  1  0
 25 44  1  0
 26 45  1  0
 29 46  1  0
 30 47  1  0
 31 48  1  0
M  END
