
     RDKit          3D

 34 39  0  0  0  0  0  0  0  0999 V2000
    7.4366   -0.2333   -0.8188 C   0  0  0  0  0  0  0  0  0  0  0  0
    7.7322    0.4141   -1.9971 C   0  0  0  0  0  0  0  0  0  0  0  0
    6.2940    1.0331   -2.6909 S   0  0  0  0  0  0  0  0  0  0  0  0
    5.3846    0.3926   -1.3715 C   0  0  0  0  0  0  0  0  0  0  0  0
    6.1024   -0.2449   -0.4632 N   0  0  0  0  0  0  0  0  0  0  0  0
    3.9498    0.5549   -1.2885 C   0  0  0  0  0  0  0  0  0  0  0  0
    3.2347    1.2001   -2.1918 N   0  0  0  0  0  0  0  0  0  0  0  0
    1.9001    1.1802   -1.8345 C   0  0  0  0  0  0  0  0  0  0  0  0
    1.5938    0.5271   -0.6561 C   0  0  0  0  0  0  0  0  0  0  0  0
    3.0427   -0.0932    0.0238 S   0  0  0  0  0  0  0  0  0  0  0  0
    0.3039    0.3718   -0.0435 C   0  0  0  0  0  0  0  0  0  0  0  0
   -0.1948   -1.0906    0.7273 S   0  0  0  0  0  0  0  0  0  0  0  0
   -1.7573   -0.4862    1.1207 C   0  0  0  0  0  0  0  0  0  0  0  0
   -2.7486   -1.2601    1.7993 C   0  0  0  0  0  0  0  0  0  0  0  0
   -2.4415   -2.0285    3.3368 S   0  0  0  0  0  0  0  0  0  0  0  0
   -4.0361   -2.6989    3.4530 C   0  0  0  0  0  0  0  0  0  0  0  0
   -4.7127   -2.3269    2.3521 C   0  0  0  0  0  0  0  0  0  0  0  0
   -5.9988   -2.6497    2.0483 O   0  0  0  0  0  0  0  0  0  0  0  0
   -6.1168   -2.0070    0.8294 C   0  0  0  0  0  0  0  0  0  0  0  0
   -4.9586   -1.3327    0.4212 C   0  0  0  0  0  0  0  0  0  0  0  0
   -4.0253   -1.5489    1.4529 C   0  0  0  0  0  0  0  0  0  0  0  0
   -1.8917    0.8048    0.6849 C   0  0  0  0  0  0  0  0  0  0  0  0
   -3.2543    1.9911    0.8137 S   0  0  0  0  0  0  0  0  0  0  0  0
   -2.1827    3.0949   -0.0286 C   0  0  0  0  0  0  0  0  0  0  0  0
   -0.9194    2.5977   -0.3643 C   0  0  0  0  0  0  0  0  0  0  0  0
   -0.7313    1.2471    0.0416 C   0  0  0  0  0  0  0  0  0  0  0  0
    8.1604   -0.7180   -0.1744 H   0  0  0  0  0  0  0  0  0  0  0  0
    8.6943    0.5492   -2.4696 H   0  0  0  0  0  0  0  0  0  0  0  0
    1.1819    1.6610   -2.4881 H   0  0  0  0  0  0  0  0  0  0  0  0
   -4.3749   -3.3031    4.2815 H   0  0  0  0  0  0  0  0  0  0  0  0
   -7.0887   -2.1214    0.3672 H   0  0  0  0  0  0  0  0  0  0  0  0
   -4.8386   -0.7746   -0.4961 H   0  0  0  0  0  0  0  0  0  0  0  0
   -2.5589    4.0896   -0.2276 H   0  0  0  0  0  0  0  0  0  0  0  0
   -0.1804    3.2087   -0.8685 H   0  0  0  0  0  0  0  0  0  0  0  0
  1  2  2  0
  2  3  1  0
  3  4  1  0
  4  5  2  0
  4  6  1  0
  6  7  2  0
  7  8  1  0
  8  9  2  0
  9 10  1  0
  9 11  1  0
 11 12  1  0
 12 13  1  0
 13 14  1  0
 14 15  1  0
 15 16  1  0
 16 17  2  0
 17 18  1  0
 18 19  1  0
 19 20  2  0
 20 21  1  0
 13 22  2  0
 22 23  1  0
 23 24  1  0
 24 25  2  0
 25 26  1  0
  5  1  1  0
 10  6  1  0
 26 11  2  0
 21 14  2  0
 26 22  1  0
 21 17  1  0
  1 27  1  0
  2 28  1  0
  8 29  1  0
 16 30  1  0
 19 31  1  0
 20 32  1  0
 24 33  1  0
 25 34  1  0
M  END
