
     RDKit          3D

 42 48  0  0  0  0  0  0  0  0999 V2000
    6.6491    3.0695    0.3440 C   0  0  0  0  0  0  0  0  0  0  0  0
    7.6374    2.1538    0.0662 C   0  0  0  0  0  0  0  0  0  0  0  0
    6.9271    0.6557   -0.3570 S   0  0  0  0  0  0  0  0  0  0  0  0
    5.3547    1.3348   -0.1456 C   0  0  0  0  0  0  0  0  0  0  0  0
    5.3568    2.6015    0.2244 N   0  0  0  0  0  0  0  0  0  0  0  0
    4.1333    0.5966   -0.3313 C   0  0  0  0  0  0  0  0  0  0  0  0
    2.6058    1.1668    0.2890 S   0  0  0  0  0  0  0  0  0  0  0  0
    1.7097   -0.1972   -0.3005 C   0  0  0  0  0  0  0  0  0  0  0  0
    0.3044   -0.3424   -0.0904 C   0  0  0  0  0  0  0  0  0  0  0  0
   -0.8502    0.8473   -0.5655 S   0  0  0  0  0  0  0  0  0  0  0  0
   -2.1923   -0.0744   -0.0016 C   0  0  0  0  0  0  0  0  0  0  0  0
   -3.5398    0.4400   -0.1284 C   0  0  0  0  0  0  0  0  0  0  0  0
   -4.1857    0.6599   -1.3694 C   0  0  0  0  0  0  0  0  0  0  0  0
   -5.5273    1.1455   -1.4951 C   0  0  0  0  0  0  0  0  0  0  0  0
   -6.3582    1.4603   -0.3983 C   0  0  0  0  0  0  0  0  0  0  0  0
   -5.7155    1.2472    0.8218 C   0  0  0  0  0  0  0  0  0  0  0  0
   -6.3261    1.4931    2.0264 C   0  0  0  0  0  0  0  0  0  0  0  0
   -5.2728    1.1487    3.3395 S   0  0  0  0  0  0  0  0  0  0  0  0
   -3.9950    0.6755    2.2894 C   0  0  0  0  0  0  0  0  0  0  0  0
   -4.3636    0.7581    0.9659 C   0  0  0  0  0  0  0  0  0  0  0  0
   -1.7088   -1.2316    0.5128 C   0  0  0  0  0  0  0  0  0  0  0  0
   -2.3193   -2.3679    1.1051 C   0  0  0  0  0  0  0  0  0  0  0  0
   -1.3882   -3.3323    1.5036 C   0  0  0  0  0  0  0  0  0  0  0  0
    0.3005   -2.9569    1.1988 S   0  0  0  0  0  0  0  0  0  0  0  0
   -0.3246   -1.4150    0.4848 C   0  0  0  0  0  0  0  0  0  0  0  0
    2.5857   -1.0012   -0.9425 C   0  0  0  0  0  0  0  0  0  0  0  0
    2.6304   -2.2156   -1.6748 C   0  0  0  0  0  0  0  0  0  0  0  0
    3.9681   -2.4139   -2.0694 C   0  0  0  0  0  0  0  0  0  0  0  0
    4.7896   -1.3803   -1.6301 N   0  0  0  0  0  0  0  0  0  0  0  0
    3.8997   -0.5785   -0.9670 C   0  0  0  0  0  0  0  0  0  0  0  0
    6.8137    4.0982    0.6414 H   0  0  0  0  0  0  0  0  0  0  0  0
    8.7088    2.2902    0.0941 H   0  0  0  0  0  0  0  0  0  0  0  0
   -3.6401    0.4439   -2.2891 H   0  0  0  0  0  0  0  0  0  0  0  0
   -5.9283    1.2785   -2.5008 H   0  0  0  0  0  0  0  0  0  0  0  0
   -7.3691    1.8275   -0.5166 H   0  0  0  0  0  0  0  0  0  0  0  0
   -7.3254    1.8585    2.2194 H   0  0  0  0  0  0  0  0  0  0  0  0
   -3.0506    0.3681    2.7172 H   0  0  0  0  0  0  0  0  0  0  0  0
   -3.3859   -2.4962    1.2475 H   0  0  0  0  0  0  0  0  0  0  0  0
   -1.6027   -4.2794    1.9800 H   0  0  0  0  0  0  0  0  0  0  0  0
    1.8063   -2.8790   -1.9033 H   0  0  0  0  0  0  0  0  0  0  0  0
    4.4040   -3.2234   -2.6412 H   0  0  0  0  0  0  0  0  0  0  0  0
    5.7847   -1.2338   -1.7533 H   0  0  0  0  0  0  0  0  0  0  0  0
  1  2  2  0
  2  3  1  0
  3  4  1  0
  4  5  2  0
  4  6  1  0
  6  7  1  0
  7  8  1  0
  8  9  1  0
  9 10  1  0
 10 11  1  0
 11 12  1  0
 12 13  2  0
 13 14  1  0
 14 15  2  0
 15 16  1  0
 16 17  2  0
 17 18  1  0
 18 19  1  0
 19 20  2  0
 11 21  2  0
 21 22  1  0
 22 23  2  0
 23 24  1  0
 24 25  1  0
  8 26  2  0
 26 27  1  0
 27 28  2  0
 28 29  1  0
 29 30  1  0
  5  1  1  0
 30  6  2  0
 25  9  2  0
 30 26  1  0
 20 12  1  0
 25 21  1  0
 20 16  1  0
  1 31  1  0
  2 32  1  0
 13 33  1  0
 14 34  1  0
 15 35  1  0
 17 36  1  0
 19 37  1  0
 22 38  1  0
 23 39  1  0
 27 40  1  0
 28 41  1  0
 29 42  1  0
M  END
