
     RDKit          3D

 43 50  0  0  0  0  0  0  0  0999 V2000
   -5.7777   -1.4043    2.3971 Si  0  0  0  0  0  4  0  0  0  0  0  0
   -6.3832   -0.1533    1.1638 C   0  0  0  0  0  0  0  0  0  0  0  0
   -5.3702    0.3180    0.4121 C   0  0  0  0  0  0  0  0  0  0  0  0
   -5.5793    1.1644   -0.7364 C   0  0  0  0  0  0  0  0  0  0  0  0
   -4.5499    1.4478   -1.5464 C   0  0  0  0  0  0  0  0  0  0  0  0
   -3.1806    0.9927   -1.2354 C   0  0  0  0  0  0  0  0  0  0  0  0
   -2.1421    1.3062   -2.1549 C   0  0  0  0  0  0  0  0  0  0  0  0
   -2.2816    1.9108   -3.3506 N   0  0  0  0  0  0  0  0  0  0  0  0
   -0.7737    2.0022   -4.0240 S   0  0  0  0  0  0  0  0  0  0  0  0
    0.1267    1.3067   -2.8283 N   0  0  0  0  0  0  0  0  0  0  0  0
   -0.7141    0.9656   -1.8350 C   0  0  0  0  0  0  0  0  0  0  0  0
   -0.3808    0.3808   -0.5798 C   0  0  0  0  0  0  0  0  0  0  0  0
    0.9493    0.1124   -0.2176 C   0  0  0  0  0  0  0  0  0  0  0  0
    2.0606    0.2850   -0.9870 O   0  0  0  0  0  0  0  0  0  0  0  0
    3.1647   -0.0901   -0.2650 C   0  0  0  0  0  0  0  0  0  0  0  0
    2.7388   -0.4993    0.9880 C   0  0  0  0  0  0  0  0  0  0  0  0
    1.3254   -0.3716    1.0240 C   0  0  0  0  0  0  0  0  0  0  0  0
    0.3315   -0.5866    1.9827 C   0  0  0  0  0  0  0  0  0  0  0  0
   -1.0100   -0.3403    1.6334 C   0  0  0  0  0  0  0  0  0  0  0  0
   -1.4342    0.0925    0.3510 C   0  0  0  0  0  0  0  0  0  0  0  0
   -2.8212    0.2971   -0.0285 C   0  0  0  0  0  0  0  0  0  0  0  0
   -4.0138   -0.1840    0.7606 C   0  0  0  0  0  0  0  0  0  0  0  0
   -4.0539   -1.1585    1.6966 C   0  0  0  0  0  0  0  0  0  0  0  0
    4.4949   -0.0291   -0.7993 C   0  0  0  0  0  0  0  0  0  0  0  0
    4.7996    0.5415   -2.4239 S   0  0  0  0  0  0  0  0  0  0  0  0
    6.5125    0.3227   -2.3091 C   0  0  0  0  0  0  0  0  0  0  0  0
    6.7768   -0.1593   -1.0825 C   0  0  0  0  0  0  0  0  0  0  0  0
    8.0075   -0.4683   -0.5918 O   0  0  0  0  0  0  0  0  0  0  0  0
    7.6515   -0.9003    0.6711 C   0  0  0  0  0  0  0  0  0  0  0  0
    6.2750   -0.8532    0.9264 C   0  0  0  0  0  0  0  0  0  0  0  0
    5.6940   -0.3538   -0.2573 C   0  0  0  0  0  0  0  0  0  0  0  0
   -6.2959   -2.7687    2.1383 H   0  0  0  0  0  0  0  0  0  0  0  0
   -5.8780   -0.9305    3.7983 H   0  0  0  0  0  0  0  0  0  0  0  0
   -7.4344    0.0588    1.0472 H   0  0  0  0  0  0  0  0  0  0  0  0
   -6.5796    1.5158   -0.9672 H   0  0  0  0  0  0  0  0  0  0  0  0
   -4.7060    2.0523   -2.4352 H   0  0  0  0  0  0  0  0  0  0  0  0
    3.3694   -0.8455    1.7929 H   0  0  0  0  0  0  0  0  0  0  0  0
    0.5824   -0.9219    2.9851 H   0  0  0  0  0  0  0  0  0  0  0  0
   -1.7283   -0.4489    2.4413 H   0  0  0  0  0  0  0  0  0  0  0  0
   -3.2634   -1.7947    2.0533 H   0  0  0  0  0  0  0  0  0  0  0  0
    7.2021    0.5483   -3.1090 H   0  0  0  0  0  0  0  0  0  0  0  0
    8.4907   -1.2126    1.2791 H   0  0  0  0  0  0  0  0  0  0  0  0
    5.7984   -1.1471    1.8495 H   0  0  0  0  0  0  0  0  0  0  0  0
  1  2  1  0
  2  3  2  0
  3  4  1  0
  4  5  2  0
  5  6  1  0
  6  7  1  0
  7  8  2  0
  8  9  1  0
  9 10  1  0
 10 11  2  0
 11 12  1  0
 12 13  2  0
 13 14  1  0
 14 15  1  0
 15 16  2  0
 16 17  1  0
 17 18  2  0
 18 19  1  0
 19 20  2  0
 20 21  1  0
 21 22  1  0
 22 23  2  0
 15 24  1  0
 24 25  1  0
 25 26  1  0
 26 27  2  0
 27 28  1  0
 28 29  1  0
 29 30  2  0
 30 31  1  0
 23  1  1  0
 31 24  2  0
 22  3  1  0
 31 27  1  0
 21  6  2  0
 11  7  1  0
 20 12  1  0
 17 13  1  0
  1 32  1  0
  1 33  1  0
  2 34  1  0
  4 35  1  0
  5 36  1  0
 16 37  1  0
 18 38  1  0
 19 39  1  0
 23 40  1  0
 26 41  1  0
 29 42  1  0
 30 43  1  0
M  END
