
     RDKit          3D

 20 22  0  0  0  0  0  0  0  0999 V2000
   -3.8153   -0.9319   -0.5467 C   0  0  0  0  0  0  0  0  0  0  0  0
   -2.5112   -1.0505   -0.6500 N   0  0  0  0  0  0  0  0  0  0  0  0
   -1.8809   -0.0123    0.0274 C   0  0  0  0  0  0  0  0  0  0  0  0
   -0.4180    0.0778    0.0595 C   0  0  0  0  0  0  0  0  0  0  0  0
    0.2584    1.1126    0.7338 C   0  0  0  0  0  0  0  0  0  0  0  0
    1.6600    1.1976    0.7638 C   0  0  0  0  0  0  0  0  0  0  0  0
    2.3545    0.1979    0.0869 C   0  0  0  0  0  0  0  0  0  0  0  0
    3.6825   -0.0579   -0.1080 N   0  0  0  0  0  0  0  0  0  0  0  0
    3.8782   -1.1627   -0.8452 N   0  0  0  0  0  0  0  0  0  0  0  0
    2.6828   -1.6540   -1.1488 N   0  0  0  0  0  0  0  0  0  0  0  0
    1.7329   -0.8401   -0.5905 C   0  0  0  0  0  0  0  0  0  0  0  0
    0.3334   -0.9091   -0.6099 C   0  0  0  0  0  0  0  0  0  0  0  0
   -2.7504    0.8767    0.6340 C   0  0  0  0  0  0  0  0  0  0  0  0
   -4.3798    0.4092    0.3544 S   0  0  0  0  0  0  0  0  0  0  0  0
   -4.4971   -1.6379   -1.0026 H   0  0  0  0  0  0  0  0  0  0  0  0
   -0.2943    1.8880    1.2591 H   0  0  0  0  0  0  0  0  0  0  0  0
    2.1655    2.0015    1.2880 H   0  0  0  0  0  0  0  0  0  0  0  0
    4.4894    0.4580    0.2193 H   0  0  0  0  0  0  0  0  0  0  0  0
   -0.1498   -1.7235   -1.1415 H   0  0  0  0  0  0  0  0  0  0  0  0
   -2.5408    1.7604    1.2168 H   0  0  0  0  0  0  0  0  0  0  0  0
  1  2  2  0
  2  3  1  0
  3  4  1  0
  4  5  2  0
  5  6  1  0
  6  7  2  0
  7  8  1  0
  8  9  1  0
  9 10  2  0
 10 11  1  0
 11 12  2  0
  3 13  2  0
 13 14  1  0
 14  1  1  0
 12  4  1  0
 11  7  1  0
  1 15  1  0
  5 16  1  0
  6 17  1  0
  8 18  1  0
 12 19  1  0
 13 20  1  0
M  END
