
     RDKit          3D

 19 21  0  0  0  0  0  0  0  0999 V2000
   -4.0215    0.0099   -0.4328 C   0  0  0  0  0  0  0  0  0  0  0  0
   -2.9324   -0.5762   -0.0058 N   0  0  0  0  0  0  0  0  0  0  0  0
   -1.9512    0.3212   -0.3780 C   0  0  0  0  0  0  0  0  0  0  0  0
   -0.5360    0.0871   -0.1032 C   0  0  0  0  0  0  0  0  0  0  0  0
   -0.1357   -1.0871    0.5628 C   0  0  0  0  0  0  0  0  0  0  0  0
    1.2093   -1.3606    0.8510 C   0  0  0  0  0  0  0  0  0  0  0  0
    2.1327   -0.4015    0.4399 C   0  0  0  0  0  0  0  0  0  0  0  0
    3.4927   -0.3066    0.5341 N   0  0  0  0  0  0  0  0  0  0  0  0
    3.9561    0.8262   -0.0181 N   0  0  0  0  0  0  0  0  0  0  0  0
    2.9104    1.4972   -0.4856 N   0  0  0  0  0  0  0  0  0  0  0  0
    1.7822    0.7684   -0.2186 C   0  0  0  0  0  0  0  0  0  0  0  0
    0.4337    1.0277   -0.4996 C   0  0  0  0  0  0  0  0  0  0  0  0
   -2.4258    1.4108   -1.0069 N   0  0  0  0  0  0  0  0  0  0  0  0
   -3.8030    1.2003   -1.0416 O   0  0  0  0  0  0  0  0  0  0  0  0
   -5.0456   -0.3236   -0.3645 H   0  0  0  0  0  0  0  0  0  0  0  0
   -0.8873   -1.8154    0.8696 H   0  0  0  0  0  0  0  0  0  0  0  0
    1.5033   -2.2694    1.3648 H   0  0  0  0  0  0  0  0  0  0  0  0
    4.1532   -0.9528    0.9474 H   0  0  0  0  0  0  0  0  0  0  0  0
    0.1649    1.9445   -1.0149 H   0  0  0  0  0  0  0  0  0  0  0  0
  1  2  2  0
  2  3  1  0
  3  4  1  0
  4  5  2  0
  5  6  1  0
  6  7  2  0
  7  8  1  0
  8  9  1  0
  9 10  2  0
 10 11  1  0
 11 12  2  0
  3 13  2  0
 13 14  1  0
 14  1  1  0
 12  4  1  0
 11  7  1  0
  1 15  1  0
  5 16  1  0
  6 17  1  0
  8 18  1  0
 12 19  1  0
M  END
