
     RDKit          3D

 22 25  0  0  0  0  0  0  0  0999 V2000
   -4.9943    0.1406    1.5247 C   0  0  0  0  0  0  0  0  0  0  0  0
   -3.6832    0.0704    1.5554 N   0  0  0  0  0  0  0  0  0  0  0  0
   -3.1837    0.0985    0.2603 C   0  0  0  0  0  0  0  0  0  0  0  0
   -1.6236    0.0283   -0.0232 C   0  0  0  0  0  0  0  0  0  0  0  0
   -0.7494   -0.0588    0.9572 N   0  0  0  0  0  0  0  0  0  0  0  0
    0.5344   -0.1050    0.4497 C   0  0  0  0  0  0  0  0  0  0  0  0
    1.7153   -0.1985    1.1969 C   0  0  0  0  0  0  0  0  0  0  0  0
    2.9535   -0.2367    0.5566 C   0  0  0  0  0  0  0  0  0  0  0  0
    4.5361   -0.3480    1.2251 S   0  0  0  0  0  0  0  0  0  0  0  0
    5.1936   -0.3163   -0.3553 C   0  0  0  0  0  0  0  0  0  0  0  0
    4.3338   -0.2296   -1.3447 N   0  0  0  0  0  0  0  0  0  0  0  0
    3.0476   -0.1833   -0.8346 C   0  0  0  0  0  0  0  0  0  0  0  0
    1.8658   -0.0899   -1.5809 C   0  0  0  0  0  0  0  0  0  0  0  0
    0.6281   -0.0517   -0.9394 C   0  0  0  0  0  0  0  0  0  0  0  0
   -0.9526    0.0593   -1.6046 S   0  0  0  0  0  0  0  0  0  0  0  0
   -4.1428    0.1904   -0.7304 C   0  0  0  0  0  0  0  0  0  0  0  0
   -5.7094    0.2434   -0.0295 S   0  0  0  0  0  0  0  0  0  0  0  0
   -5.5937    0.1344    2.4260 H   0  0  0  0  0  0  0  0  0  0  0  0
    1.6499   -0.2405    2.2807 H   0  0  0  0  0  0  0  0  0  0  0  0
    6.2618   -0.3654   -0.5230 H   0  0  0  0  0  0  0  0  0  0  0  0
    1.9304   -0.0478   -2.6646 H   0  0  0  0  0  0  0  0  0  0  0  0
   -4.0178    0.2288   -1.8024 H   0  0  0  0  0  0  0  0  0  0  0  0
  1  2  2  0
  2  3  1  0
  3  4  1  0
  4  5  2  0
  5  6  1  0
  6  7  2  0
  7  8  1  0
  8  9  1  0
  9 10  1  0
 10 11  2  0
 11 12  1  0
 12 13  1  0
 13 14  2  0
 14 15  1  0
  3 16  2  0
 16 17  1  0
 17  1  1  0
 15  4  1  0
 14  6  1  0
 12  8  2  0
  1 18  1  0
  7 19  1  0
 10 20  1  0
 13 21  1  0
 16 22  1  0
M  END
