
     RDKit          3D

 21 24  0  0  0  0  0  0  0  0999 V2000
    5.3324    0.6401   -0.5741 C   0  0  0  0  0  0  0  0  0  0  0  0
    4.1044    0.9112   -0.9356 N   0  0  0  0  0  0  0  0  0  0  0  0
    3.3699    0.1842   -0.0206 C   0  0  0  0  0  0  0  0  0  0  0  0
    1.7870    0.1594   -0.0103 C   0  0  0  0  0  0  0  0  0  0  0  0
    1.0893   -0.5361    0.8652 N   0  0  0  0  0  0  0  0  0  0  0  0
   -0.2627   -0.3678    0.6329 C   0  0  0  0  0  0  0  0  0  0  0  0
   -1.3049   -0.9529    1.3632 C   0  0  0  0  0  0  0  0  0  0  0  0
   -2.6334   -0.6994    1.0228 C   0  0  0  0  0  0  0  0  0  0  0  0
   -4.0848   -1.2810    1.7433 S   0  0  0  0  0  0  0  0  0  0  0  0
   -4.9960   -0.3913    0.5990 C   0  0  0  0  0  0  0  0  0  0  0  0
   -4.3111    0.3058   -0.2788 N   0  0  0  0  0  0  0  0  0  0  0  0
   -2.9569    0.1373   -0.0460 C   0  0  0  0  0  0  0  0  0  0  0  0
   -1.9140    0.7219   -0.7758 C   0  0  0  0  0  0  0  0  0  0  0  0
   -0.5857    0.4679   -0.4348 C   0  0  0  0  0  0  0  0  0  0  0  0
    0.8638    1.0483   -1.1537 S   0  0  0  0  0  0  0  0  0  0  0  0
    4.1153   -0.5016    0.8621 N   0  0  0  0  0  0  0  0  0  0  0  0
    5.4243   -0.1951    0.4898 O   0  0  0  0  0  0  0  0  0  0  0  0
    6.2603    0.9872   -1.0033 H   0  0  0  0  0  0  0  0  0  0  0  0
   -1.0621   -1.6058    2.1972 H   0  0  0  0  0  0  0  0  0  0  0  0
   -6.0782   -0.4070    0.6043 H   0  0  0  0  0  0  0  0  0  0  0  0
   -2.1570    1.3747   -1.6097 H   0  0  0  0  0  0  0  0  0  0  0  0
  1  2  2  0
  2  3  1  0
  3  4  1  0
  4  5  2  0
  5  6  1  0
  6  7  2  0
  7  8  1  0
  8  9  1  0
  9 10  1  0
 10 11  2  0
 11 12  1  0
 12 13  1  0
 13 14  2  0
 14 15  1  0
  3 16  2  0
 16 17  1  0
 17  1  1  0
 15  4  1  0
 14  6  1  0
 12  8  2  0
  1 18  1  0
  7 19  1  0
 10 20  1  0
 13 21  1  0
M  END
