
     RDKit          3D

 43 48  0  0  0  0  0  0  0  0999 V2000
   -1.3162    1.9251   -0.8310 C   0  0  0  0  0  0  0  0  0  0  0  0
   -2.6947    1.9610   -0.7522 N   0  0  0  0  0  0  0  0  0  0  0  0
   -3.1508    0.8073   -0.3062 C   0  0  0  0  0  0  0  0  0  0  0  0
   -1.9337   -0.3403    0.1003 S   0  0  0  0  0  0  0  0  0  0  0  0
   -0.7155    0.7568   -0.4051 C   0  0  0  0  0  0  0  0  0  0  0  0
    0.6854    0.3940   -0.3366 C   0  0  0  0  0  0  0  0  0  0  0  0
    1.2476   -0.7935   -0.8637 C   0  0  0  0  0  0  0  0  0  0  0  0
    2.6497   -1.1213   -0.7974 C   0  0  0  0  0  0  0  0  0  0  0  0
    3.6547   -0.3051   -0.1996 C   0  0  0  0  0  0  0  0  0  0  0  0
    5.0749   -0.6401   -0.1281 C   0  0  0  0  0  0  0  0  0  0  0  0
    5.5187   -1.9393    0.1218 C   0  0  0  0  0  0  0  0  0  0  0  0
    6.8875   -2.1991    0.1596 C   0  0  0  0  0  0  0  0  0  0  0  0
    7.7825   -1.1606   -0.0556 C   0  0  0  0  0  0  0  0  0  0  0  0
    7.2679    0.0997   -0.2978 C   0  0  0  0  0  0  0  0  0  0  0  0
    5.9460    0.3784   -0.3368 N   0  0  0  0  0  0  0  0  0  0  0  0
    3.0675    0.8608    0.3123 C   0  0  0  0  0  0  0  0  0  0  0  0
    3.6734    1.8916    0.9864 C   0  0  0  0  0  0  0  0  0  0  0  0
    2.7435    2.8247    1.3484 O   0  0  0  0  0  0  0  0  0  0  0  0
    1.5280    2.3886    0.9032 C   0  0  0  0  0  0  0  0  0  0  0  0
    1.6727    1.1900    0.2506 C   0  0  0  0  0  0  0  0  0  0  0  0
   -4.5570    0.5342   -0.0648 C   0  0  0  0  0  0  0  0  0  0  0  0
   -5.4322    1.4690    0.5517 C   0  0  0  0  0  0  0  0  0  0  0  0
   -6.8310    1.2328    0.8028 C   0  0  0  0  0  0  0  0  0  0  0  0
   -7.5106    0.0443    0.4529 C   0  0  0  0  0  0  0  0  0  0  0  0
   -6.6434   -0.8420   -0.1712 C   0  0  0  0  0  0  0  0  0  0  0  0
   -6.9591   -2.0747   -0.6744 C   0  0  0  0  0  0  0  0  0  0  0  0
   -5.8468   -2.6304   -1.2431 O   0  0  0  0  0  0  0  0  0  0  0  0
   -4.8175   -1.7391   -1.0975 C   0  0  0  0  0  0  0  0  0  0  0  0
   -5.2523   -0.6254   -0.4232 C   0  0  0  0  0  0  0  0  0  0  0  0
   -0.7920    2.7940   -1.2118 H   0  0  0  0  0  0  0  0  0  0  0  0
    0.5938   -1.5073   -1.3674 H   0  0  0  0  0  0  0  0  0  0  0  0
    2.9528   -2.0613   -1.2627 H   0  0  0  0  0  0  0  0  0  0  0  0
    4.8147   -2.7458    0.2999 H   0  0  0  0  0  0  0  0  0  0  0  0
    7.2491   -3.2041    0.3574 H   0  0  0  0  0  0  0  0  0  0  0  0
    8.8534   -1.3278   -0.0341 H   0  0  0  0  0  0  0  0  0  0  0  0
    7.9235    0.9480   -0.4733 H   0  0  0  0  0  0  0  0  0  0  0  0
    4.6900    2.1106    1.2825 H   0  0  0  0  0  0  0  0  0  0  0  0
    0.6950    3.0351    1.1412 H   0  0  0  0  0  0  0  0  0  0  0  0
   -5.0208    2.4332    0.8588 H   0  0  0  0  0  0  0  0  0  0  0  0
   -7.3986    2.0278    1.2891 H   0  0  0  0  0  0  0  0  0  0  0  0
   -8.5624   -0.1199    0.6391 H   0  0  0  0  0  0  0  0  0  0  0  0
   -7.8581   -2.6721   -0.7277 H   0  0  0  0  0  0  0  0  0  0  0  0
   -3.8795   -2.0576   -1.5293 H   0  0  0  0  0  0  0  0  0  0  0  0
  1  2  1  0
  2  3  2  0
  3  4  1  0
  4  5  1  0
  5  6  1  0
  6  7  2  0
  7  8  1  0
  8  9  2  0
  9 10  1  0
 10 11  2  0
 11 12  1  0
 12 13  2  0
 13 14  1  0
 14 15  2  0
  9 16  1  0
 16 17  2  0
 17 18  1  0
 18 19  1  0
 19 20  2  0
  3 21  1  0
 21 22  2  0
 22 23  1  0
 23 24  2  0
 24 25  1  0
 25 26  2  0
 26 27  1  0
 27 28  1  0
 28 29  2  0
  5  1  2  0
 20  6  1  0
 29 21  1  0
 15 10  1  0
 20 16  1  0
 29 25  1  0
  1 30  1  0
  7 31  1  0
  8 32  1  0
 11 33  1  0
 12 34  1  0
 13 35  1  0
 14 36  1  0
 17 37  1  0
 19 38  1  0
 22 39  1  0
 23 40  1  0
 24 41  1  0
 26 42  1  0
 28 43  1  0
M  END
