
     RDKit          3D

 35 39  0  0  0  0  0  0  0  0999 V2000
    0.1434    1.6302   -0.6819 C   0  0  0  0  0  0  0  0  0  0  0  0
    1.4621    1.4169   -1.0346 N   0  0  0  0  0  0  0  0  0  0  0  0
    1.9413    0.3718   -0.3840 C   0  0  0  0  0  0  0  0  0  0  0  0
    0.7935   -0.4454    0.6091 S   0  0  0  0  0  0  0  0  0  0  0  0
   -0.3944    0.7181    0.2017 C   0  0  0  0  0  0  0  0  0  0  0  0
   -1.7421    0.6416    0.7648 C   0  0  0  0  0  0  0  0  0  0  0  0
   -1.9198    1.0399    2.1007 C   0  0  0  0  0  0  0  0  0  0  0  0
   -3.1808    1.0157    2.6862 C   0  0  0  0  0  0  0  0  0  0  0  0
   -4.2804    0.5960    1.9425 C   0  0  0  0  0  0  0  0  0  0  0  0
   -4.1375    0.1909    0.6066 C   0  0  0  0  0  0  0  0  0  0  0  0
   -5.2609   -0.2308   -0.1242 C   0  0  0  0  0  0  0  0  0  0  0  0
   -5.1428   -0.6432   -1.4504 C   0  0  0  0  0  0  0  0  0  0  0  0
   -3.8978   -0.6422   -2.0641 C   0  0  0  0  0  0  0  0  0  0  0  0
   -2.7710   -0.2253   -1.3518 C   0  0  0  0  0  0  0  0  0  0  0  0
   -2.8578    0.2057   -0.0052 C   0  0  0  0  0  0  0  0  0  0  0  0
    3.2993   -0.1310   -0.5681 C   0  0  0  0  0  0  0  0  0  0  0  0
    3.9267   -0.0930   -1.8377 C   0  0  0  0  0  0  0  0  0  0  0  0
    5.2415   -0.5536   -2.0798 C   0  0  0  0  0  0  0  0  0  0  0  0
    6.0584   -1.0852   -1.0710 C   0  0  0  0  0  0  0  0  0  0  0  0
    5.5012   -1.1293    0.2295 C   0  0  0  0  0  0  0  0  0  0  0  0
    6.1280   -1.5870    1.3239 N   0  0  0  0  0  0  0  0  0  0  0  0
    5.0673   -1.4040    2.5846 S   0  0  0  0  0  0  0  0  0  0  0  0
    3.7664   -0.7411    1.8022 N   0  0  0  0  0  0  0  0  0  0  0  0
    4.0918   -0.6386    0.5005 C   0  0  0  0  0  0  0  0  0  0  0  0
   -0.3892    2.4714   -1.1094 H   0  0  0  0  0  0  0  0  0  0  0  0
   -1.0692    1.3761    2.6910 H   0  0  0  0  0  0  0  0  0  0  0  0
   -3.3078    1.3252    3.7203 H   0  0  0  0  0  0  0  0  0  0  0  0
   -5.2590    0.5852    2.4187 H   0  0  0  0  0  0  0  0  0  0  0  0
   -6.2453   -0.2431    0.3394 H   0  0  0  0  0  0  0  0  0  0  0  0
   -6.0224   -0.9677   -1.9999 H   0  0  0  0  0  0  0  0  0  0  0  0
   -3.7975   -0.9679   -3.0962 H   0  0  0  0  0  0  0  0  0  0  0  0
   -1.8121   -0.2485   -1.8654 H   0  0  0  0  0  0  0  0  0  0  0  0
    3.3641    0.3146   -2.6808 H   0  0  0  0  0  0  0  0  0  0  0  0
    5.6373   -0.4886   -3.0939 H   0  0  0  0  0  0  0  0  0  0  0  0
    7.0655   -1.4338   -1.2666 H   0  0  0  0  0  0  0  0  0  0  0  0
  1  2  1  0
  2  3  2  0
  3  4  1  0
  4  5  1  0
  5  6  1  0
  6  7  2  0
  7  8  1  0
  8  9  2  0
  9 10  1  0
 10 11  2  0
 11 12  1  0
 12 13  2  0
 13 14  1  0
 14 15  2  0
  3 16  1  0
 16 17  2  0
 17 18  1  0
 18 19  2  0
 19 20  1  0
 20 21  2  0
 21 22  1  0
 22 23  1  0
 23 24  2  0
  5  1  2  0
 15  6  1  0
 24 16  1  0
 15 10  1  0
 24 20  1  0
  1 25  1  0
  7 26  1  0
  8 27  1  0
  9 28  1  0
 11 29  1  0
 12 30  1  0
 13 31  1  0
 14 32  1  0
 17 33  1  0
 18 34  1  0
 19 35  1  0
M  END
