
     RDKit          3D

 28 32  0  0  0  0  0  0  0  0999 V2000
   -6.5020    0.1255   -0.2837 C   0  0  0  0  0  0  0  0  0  0  0  0
   -5.7862   -0.6030    0.5425 N   0  0  0  0  0  0  0  0  0  0  0  0
   -4.4407   -0.3672    0.3172 C   0  0  0  0  0  0  0  0  0  0  0  0
   -3.3719   -0.9596    1.0020 C   0  0  0  0  0  0  0  0  0  0  0  0
   -2.0566   -0.6319    0.6741 C   0  0  0  0  0  0  0  0  0  0  0  0
   -0.5826   -1.2006    1.3435 S   0  0  0  0  0  0  0  0  0  0  0  0
    0.3161   -0.2030    0.2625 C   0  0  0  0  0  0  0  0  0  0  0  0
    1.7964   -0.1674    0.2626 C   0  0  0  0  0  0  0  0  0  0  0  0
    2.5909   -0.9376    1.1370 C   0  0  0  0  0  0  0  0  0  0  0  0
    3.9950   -0.8901    1.1220 C   0  0  0  0  0  0  0  0  0  0  0  0
    4.5741   -0.0341    0.1891 C   0  0  0  0  0  0  0  0  0  0  0  0
    5.8665    0.2802   -0.1245 N   0  0  0  0  0  0  0  0  0  0  0  0
    5.9366    1.1796   -1.1189 N   0  0  0  0  0  0  0  0  0  0  0  0
    4.6925    1.4732   -1.4773 N   0  0  0  0  0  0  0  0  0  0  0  0
    3.8398    0.7440   -0.6924 C   0  0  0  0  0  0  0  0  0  0  0  0
    2.4401    0.6829   -0.6621 C   0  0  0  0  0  0  0  0  0  0  0  0
   -0.4284    0.5173   -0.5553 N   0  0  0  0  0  0  0  0  0  0  0  0
   -1.7725    0.2846   -0.3334 C   0  0  0  0  0  0  0  0  0  0  0  0
   -2.8394    0.8783   -1.0196 C   0  0  0  0  0  0  0  0  0  0  0  0
   -4.1555    0.5518   -0.6932 C   0  0  0  0  0  0  0  0  0  0  0  0
   -5.6320    1.1251   -1.3677 S   0  0  0  0  0  0  0  0  0  0  0  0
   -7.5841    0.1001   -0.2845 H   0  0  0  0  0  0  0  0  0  0  0  0
   -3.5847   -1.6763    1.7902 H   0  0  0  0  0  0  0  0  0  0  0  0
    2.1309   -1.6049    1.8640 H   0  0  0  0  0  0  0  0  0  0  0  0
    4.5869   -1.4914    1.8039 H   0  0  0  0  0  0  0  0  0  0  0  0
    6.7272   -0.0652    0.2812 H   0  0  0  0  0  0  0  0  0  0  0  0
    1.8694    1.2948   -1.3552 H   0  0  0  0  0  0  0  0  0  0  0  0
   -2.6258    1.5949   -1.8077 H   0  0  0  0  0  0  0  0  0  0  0  0
  1  2  2  0
  2  3  1  0
  3  4  2  0
  4  5  1  0
  5  6  1  0
  6  7  1  0
  7  8  1  0
  8  9  2  0
  9 10  1  0
 10 11  2  0
 11 12  1  0
 12 13  1  0
 13 14  2  0
 14 15  1  0
 15 16  2  0
  7 17  2  0
 17 18  1  0
 18 19  1  0
 19 20  2  0
 20 21  1  0
 21  1  1  0
 20  3  1  0
 18  5  2  0
 16  8  1  0
 15 11  1  0
  1 22  1  0
  4 23  1  0
  9 24  1  0
 10 25  1  0
 12 26  1  0
 16 27  1  0
 19 28  1  0
M  END
