
     RDKit          3D

 36 41  0  0  0  0  0  0  0  0999 V2000
    7.3202    1.0442   -1.3301 C   0  0  0  0  0  0  0  0  0  0  0  0
    7.5776   -0.1801   -0.9337 N   0  0  0  0  0  0  0  0  0  0  0  0
    6.3909   -0.7881   -0.5638 C   0  0  0  0  0  0  0  0  0  0  0  0
    5.2375   -0.0260   -0.6798 C   0  0  0  0  0  0  0  0  0  0  0  0
    5.6787    1.5263   -1.2834 S   0  0  0  0  0  0  0  0  0  0  0  0
    3.8535   -0.4058   -0.3642 C   0  0  0  0  0  0  0  0  0  0  0  0
    2.7609    0.4486   -0.5206 C   0  0  0  0  0  0  0  0  0  0  0  0
    1.5137   -0.0769   -0.1718 C   0  0  0  0  0  0  0  0  0  0  0  0
    0.2679    0.5013   -0.2110 N   0  0  0  0  0  0  0  0  0  0  0  0
   -0.6686   -0.4069    0.2315 C   0  0  0  0  0  0  0  0  0  0  0  0
   -0.0103   -1.5579    0.5493 C   0  0  0  0  0  0  0  0  0  0  0  0
   -1.0710   -2.7875    1.1211 S   0  0  0  0  0  0  0  0  0  0  0  0
   -2.4262   -1.7279    0.9270 C   0  0  0  0  0  0  0  0  0  0  0  0
   -3.7578   -2.0752    1.2243 C   0  0  0  0  0  0  0  0  0  0  0  0
   -4.7707   -1.1386    1.0285 C   0  0  0  0  0  0  0  0  0  0  0  0
   -4.4881    0.1359    0.5434 C   0  0  0  0  0  0  0  0  0  0  0  0
   -5.5241    1.0640    0.3536 C   0  0  0  0  0  0  0  0  0  0  0  0
   -5.2594    2.3442   -0.1311 C   0  0  0  0  0  0  0  0  0  0  0  0
   -3.9545    2.7140   -0.4329 C   0  0  0  0  0  0  0  0  0  0  0  0
   -2.9093    1.8050   -0.2510 C   0  0  0  0  0  0  0  0  0  0  0  0
   -3.1504    0.5011    0.2390 C   0  0  0  0  0  0  0  0  0  0  0  0
   -2.0924   -0.4569    0.4364 C   0  0  0  0  0  0  0  0  0  0  0  0
    1.3833   -1.3781    0.3027 C   0  0  0  0  0  0  0  0  0  0  0  0
    2.5215   -2.1730    0.4322 C   0  0  0  0  0  0  0  0  0  0  0  0
    3.7400   -1.6782    0.0980 N   0  0  0  0  0  0  0  0  0  0  0  0
    8.0986    1.7155   -1.6684 H   0  0  0  0  0  0  0  0  0  0  0  0
    6.4145   -1.8119   -0.2072 H   0  0  0  0  0  0  0  0  0  0  0  0
    2.8557    1.4615   -0.8890 H   0  0  0  0  0  0  0  0  0  0  0  0
    0.0496    1.4400   -0.5121 H   0  0  0  0  0  0  0  0  0  0  0  0
   -3.9984   -3.0651    1.6039 H   0  0  0  0  0  0  0  0  0  0  0  0
   -5.7938   -1.4258    1.2641 H   0  0  0  0  0  0  0  0  0  0  0  0
   -6.5535    0.7960    0.5833 H   0  0  0  0  0  0  0  0  0  0  0  0
   -6.0734    3.0506   -0.2723 H   0  0  0  0  0  0  0  0  0  0  0  0
   -3.7476    3.7122   -0.8108 H   0  0  0  0  0  0  0  0  0  0  0  0
   -1.9105    2.1385   -0.4996 H   0  0  0  0  0  0  0  0  0  0  0  0
    2.4956   -3.1944    0.7946 H   0  0  0  0  0  0  0  0  0  0  0  0
  1  2  2  0
  2  3  1  0
  3  4  2  0
  4  5  1  0
  4  6  1  0
  6  7  2  0
  7  8  1  0
  8  9  1  0
  9 10  1  0
 10 11  2  0
 11 12  1  0
 12 13  1  0
 13 14  2  0
 14 15  1  0
 15 16  2  0
 16 17  1  0
 17 18  2  0
 18 19  1  0
 19 20  2  0
 20 21  1  0
 21 22  2  0
 11 23  1  0
 23 24  1  0
 24 25  2  0
  5  1  1  0
 25  6  1  0
 23  8  2  0
 22 10  1  0
 22 13  1  0
 21 16  1  0
  1 26  1  0
  3 27  1  0
  7 28  1  0
  9 29  1  0
 14 30  1  0
 15 31  1  0
 17 32  1  0
 18 33  1  0
 19 34  1  0
 20 35  1  0
 24 36  1  0
M  END
