
     RDKit          3D

 34 39  0  0  0  0  0  0  0  0999 V2000
   -6.1267    0.4429   -1.1382 C   0  0  0  0  0  0  0  0  0  0  0  0
   -6.0499    0.7465    0.1381 N   0  0  0  0  0  0  0  0  0  0  0  0
   -4.7223    0.7287    0.5238 C   0  0  0  0  0  0  0  0  0  0  0  0
   -3.8049    0.4032   -0.4593 C   0  0  0  0  0  0  0  0  0  0  0  0
   -4.6429    0.1230   -1.9339 S   0  0  0  0  0  0  0  0  0  0  0  0
   -2.3589    0.2860   -0.3879 C   0  0  0  0  0  0  0  0  0  0  0  0
   -1.4748    0.9626   -1.2543 C   0  0  0  0  0  0  0  0  0  0  0  0
   -0.0808    0.8088   -1.0958 C   0  0  0  0  0  0  0  0  0  0  0  0
    0.8595    1.3924   -1.9045 O   0  0  0  0  0  0  0  0  0  0  0  0
    2.0902    1.0210   -1.4300 C   0  0  0  0  0  0  0  0  0  0  0  0
    3.3171    1.4019   -2.0097 C   0  0  0  0  0  0  0  0  0  0  0  0
    4.5246    0.9892   -1.4210 C   0  0  0  0  0  0  0  0  0  0  0  0
    4.3506    0.2513   -0.2497 C   0  0  0  0  0  0  0  0  0  0  0  0
    5.4323   -0.1776    0.4862 C   0  0  0  0  0  0  0  0  0  0  0  0
    4.9455   -0.9914    1.9259 S   0  0  0  0  0  0  0  0  0  0  0  0
    3.2714   -0.7697    1.5733 C   0  0  0  0  0  0  0  0  0  0  0  0
    3.1317   -0.1445    0.3710 C   0  0  0  0  0  0  0  0  0  0  0  0
    1.9237    0.2331   -0.2974 C   0  0  0  0  0  0  0  0  0  0  0  0
    0.5633    0.0480   -0.1273 C   0  0  0  0  0  0  0  0  0  0  0  0
   -0.3029   -0.7042    0.7210 C   0  0  0  0  0  0  0  0  0  0  0  0
   -0.0552   -1.6636    1.6564 C   0  0  0  0  0  0  0  0  0  0  0  0
   -1.2937   -2.0560    2.1244 N   0  0  0  0  0  0  0  0  0  0  0  0
   -2.2933   -1.3831    1.4499 C   0  0  0  0  0  0  0  0  0  0  0  0
   -1.6992   -0.5282    0.5451 C   0  0  0  0  0  0  0  0  0  0  0  0
   -7.0710    0.3965   -1.6645 H   0  0  0  0  0  0  0  0  0  0  0  0
   -4.4718    0.9658    1.5512 H   0  0  0  0  0  0  0  0  0  0  0  0
   -1.8493    1.6091   -2.0424 H   0  0  0  0  0  0  0  0  0  0  0  0
    3.3219    2.0132   -2.9072 H   0  0  0  0  0  0  0  0  0  0  0  0
    5.4863    1.2632   -1.8380 H   0  0  0  0  0  0  0  0  0  0  0  0
    6.4863   -0.0477    0.2811 H   0  0  0  0  0  0  0  0  0  0  0  0
    2.5422   -1.0881    2.2953 H   0  0  0  0  0  0  0  0  0  0  0  0
    0.8292   -2.1541    2.0258 H   0  0  0  0  0  0  0  0  0  0  0  0
   -1.4489   -2.7688    2.8263 H   0  0  0  0  0  0  0  0  0  0  0  0
   -3.3291   -1.6094    1.6663 H   0  0  0  0  0  0  0  0  0  0  0  0
  1  2  2  0
  2  3  1  0
  3  4  2  0
  4  5  1  0
  4  6  1  0
  6  7  2  0
  7  8  1  0
  8  9  1  0
  9 10  1  0
 10 11  1  0
 11 12  2  0
 12 13  1  0
 13 14  2  0
 14 15  1  0
 15 16  1  0
 16 17  2  0
 17 18  1  0
 18 19  1  0
 19 20  1  0
 20 21  2  0
 21 22  1  0
 22 23  1  0
 23 24  2  0
  5  1  1  0
 24  6  1  0
 19  8  2  0
 24 20  1  0
 18 10  2  0
 17 13  1  0
  1 25  1  0
  3 26  1  0
  7 27  1  0
 11 28  1  0
 12 29  1  0
 14 30  1  0
 16 31  1  0
 21 32  1  0
 22 33  1  0
 23 34  1  0
M  END
