
     RDKit          3D

 39 45  0  0  0  0  0  0  0  0999 V2000
    7.1864    0.8349    1.9592 C   0  0  0  0  0  0  0  0  0  0  0  0
    7.3355    1.2144    0.7099 N   0  0  0  0  0  0  0  0  0  0  0  0
    6.1379    1.0445    0.0412 C   0  0  0  0  0  0  0  0  0  0  0  0
    5.0926    0.5290    0.7864 C   0  0  0  0  0  0  0  0  0  0  0  0
    5.6312    0.2628    2.3970 S   0  0  0  0  0  0  0  0  0  0  0  0
    3.7290    0.2189    0.3997 C   0  0  0  0  0  0  0  0  0  0  0  0
    2.5835    0.7403    1.0539 C   0  0  0  0  0  0  0  0  0  0  0  0
    1.2630    0.4193    0.6206 C   0  0  0  0  0  0  0  0  0  0  0  0
   -0.2446    0.9436    1.2653 S   0  0  0  0  0  0  0  0  0  0  0  0
   -1.1586    0.0140    0.0617 C   0  0  0  0  0  0  0  0  0  0  0  0
   -0.3156   -0.6629   -0.7917 C   0  0  0  0  0  0  0  0  0  0  0  0
   -1.1943   -1.5740   -1.9720 S   0  0  0  0  0  0  0  0  0  0  0  0
   -2.6954   -1.0456   -1.3184 C   0  0  0  0  0  0  0  0  0  0  0  0
   -3.9545   -1.4241   -1.8223 C   0  0  0  0  0  0  0  0  0  0  0  0
   -5.1102   -0.9379   -1.2178 C   0  0  0  0  0  0  0  0  0  0  0  0
   -5.0405   -0.0831   -0.1223 C   0  0  0  0  0  0  0  0  0  0  0  0
   -6.2216    0.3932    0.4692 C   0  0  0  0  0  0  0  0  0  0  0  0
   -6.1782    1.2503    1.5671 C   0  0  0  0  0  0  0  0  0  0  0  0
   -4.9522    1.6424    2.0880 C   0  0  0  0  0  0  0  0  0  0  0  0
   -3.7661    1.1787    1.5128 C   0  0  0  0  0  0  0  0  0  0  0  0
   -3.7779    0.3082    0.3980 C   0  0  0  0  0  0  0  0  0  0  0  0
   -2.5691   -0.1889   -0.2198 C   0  0  0  0  0  0  0  0  0  0  0  0
    1.0241   -0.4110   -0.4491 C   0  0  0  0  0  0  0  0  0  0  0  0
    2.1294   -0.9729   -1.1475 C   0  0  0  0  0  0  0  0  0  0  0  0
    2.2421   -1.8154   -2.2090 C   0  0  0  0  0  0  0  0  0  0  0  0
    3.5788   -2.0275   -2.4328 O   0  0  0  0  0  0  0  0  0  0  0  0
    4.2760   -1.3066   -1.4967 C   0  0  0  0  0  0  0  0  0  0  0  0
    3.4104   -0.6182   -0.6760 C   0  0  0  0  0  0  0  0  0  0  0  0
    7.9954    0.8794    2.6767 H   0  0  0  0  0  0  0  0  0  0  0  0
    6.0808    1.3194   -1.0057 H   0  0  0  0  0  0  0  0  0  0  0  0
    2.7075    1.4120    1.9023 H   0  0  0  0  0  0  0  0  0  0  0  0
   -4.0296   -2.0913   -2.6776 H   0  0  0  0  0  0  0  0  0  0  0  0
   -6.0740   -1.2420   -1.6220 H   0  0  0  0  0  0  0  0  0  0  0  0
   -7.1930    0.0987    0.0770 H   0  0  0  0  0  0  0  0  0  0  0  0
   -7.1013    1.6103    2.0137 H   0  0  0  0  0  0  0  0  0  0  0  0
   -4.9133    2.3109    2.9445 H   0  0  0  0  0  0  0  0  0  0  0  0
   -2.8375    1.5152    1.9579 H   0  0  0  0  0  0  0  0  0  0  0  0
    1.5725   -2.3348   -2.8784 H   0  0  0  0  0  0  0  0  0  0  0  0
    5.3513   -1.4041   -1.5601 H   0  0  0  0  0  0  0  0  0  0  0  0
  1  2  2  0
  2  3  1  0
  3  4  2  0
  4  5  1  0
  4  6  1  0
  6  7  2  0
  7  8  1  0
  8  9  1  0
  9 10  1  0
 10 11  2  0
 11 12  1  0
 12 13  1  0
 13 14  2  0
 14 15  1  0
 15 16  2  0
 16 17  1  0
 17 18  2  0
 18 19  1  0
 19 20  2  0
 20 21  1  0
 21 22  2  0
 11 23  1  0
 23 24  1  0
 24 25  2  0
 25 26  1  0
 26 27  1  0
 27 28  2  0
  5  1  1  0
 28  6  1  0
 23  8  2  0
 28 24  1  0
 22 10  1  0
 22 13  1  0
 21 16  1  0
  1 29  1  0
  3 30  1  0
  7 31  1  0
 14 32  1  0
 15 33  1  0
 17 34  1  0
 18 35  1  0
 19 36  1  0
 20 37  1  0
 25 38  1  0
 27 39  1  0
M  END
