
     RDKit          3D

 44 50  0  0  0  0  0  0  0  0999 V2000
   -7.6598    1.7912    0.5671 C   0  0  0  0  0  0  0  0  0  0  0  0
   -6.8971    2.6860    1.1485 N   0  0  0  0  0  0  0  0  0  0  0  0
   -5.5749    2.3056    1.0083 C   0  0  0  0  0  0  0  0  0  0  0  0
   -5.3271    1.1232    0.3214 C   0  0  0  0  0  0  0  0  0  0  0  0
   -6.8541    0.4738   -0.1638 S   0  0  0  0  0  0  0  0  0  0  0  0
   -4.0417    0.4566    0.0086 C   0  0  0  0  0  0  0  0  0  0  0  0
   -3.9750   -0.7500   -0.7049 C   0  0  0  0  0  0  0  0  0  0  0  0
   -2.7528   -1.3792   -0.9996 C   0  0  0  0  0  0  0  0  0  0  0  0
   -1.5479   -0.7951   -0.5737 C   0  0  0  0  0  0  0  0  0  0  0  0
   -1.6167    0.3995    0.1325 C   0  0  0  0  0  0  0  0  0  0  0  0
   -2.8316    1.0392    0.4340 C   0  0  0  0  0  0  0  0  0  0  0  0
   -0.3237    0.7777    0.4418 N   0  0  0  0  0  0  0  0  0  0  0  0
    0.6256   -0.1145   -0.0273 C   0  0  0  0  0  0  0  0  0  0  0  0
   -0.1734   -1.0738   -0.6500 C   0  0  0  0  0  0  0  0  0  0  0  0
    0.4839   -2.1742   -1.2617 C   0  0  0  0  0  0  0  0  0  0  0  0
   -0.0159   -3.2496   -1.9340 C   0  0  0  0  0  0  0  0  0  0  0  0
    1.0903   -3.9857   -2.2998 N   0  0  0  0  0  0  0  0  0  0  0  0
    2.2428   -3.3637   -1.8548 C   0  0  0  0  0  0  0  0  0  0  0  0
    1.8793   -2.2083   -1.1912 C   0  0  0  0  0  0  0  0  0  0  0  0
    2.7388   -1.2697   -0.5769 C   0  0  0  0  0  0  0  0  0  0  0  0
    4.1354   -1.4182   -0.5743 C   0  0  0  0  0  0  0  0  0  0  0  0
    4.9310   -0.4666    0.0435 C   0  0  0  0  0  0  0  0  0  0  0  0
    4.3699    0.6482    0.6701 C   0  0  0  0  0  0  0  0  0  0  0  0
    5.2493    1.5646    1.2724 C   0  0  0  0  0  0  0  0  0  0  0  0
    4.7796    2.7009    1.9175 C   0  0  0  0  0  0  0  0  0  0  0  0
    3.4180    2.9307    1.9654 C   0  0  0  0  0  0  0  0  0  0  0  0
    2.5326    2.0235    1.3681 C   0  0  0  0  0  0  0  0  0  0  0  0
    2.9558    0.8455    0.6952 C   0  0  0  0  0  0  0  0  0  0  0  0
    2.0940   -0.1443    0.0505 C   0  0  0  0  0  0  0  0  0  0  0  0
   -8.7384    1.8773    0.5482 H   0  0  0  0  0  0  0  0  0  0  0  0
   -4.8184    2.9488    1.4397 H   0  0  0  0  0  0  0  0  0  0  0  0
   -4.8762   -1.2454   -1.0583 H   0  0  0  0  0  0  0  0  0  0  0  0
   -2.7583   -2.3108   -1.5542 H   0  0  0  0  0  0  0  0  0  0  0  0
   -2.8151    1.9708    0.9894 H   0  0  0  0  0  0  0  0  0  0  0  0
   -0.1326    1.6179    0.9543 H   0  0  0  0  0  0  0  0  0  0  0  0
   -1.0097   -3.5790   -2.1946 H   0  0  0  0  0  0  0  0  0  0  0  0
    1.0647   -4.8542   -2.8180 H   0  0  0  0  0  0  0  0  0  0  0  0
    3.2033   -3.8148   -2.0605 H   0  0  0  0  0  0  0  0  0  0  0  0
    4.6129   -2.2693   -1.0494 H   0  0  0  0  0  0  0  0  0  0  0  0
    6.0098   -0.6101    0.0285 H   0  0  0  0  0  0  0  0  0  0  0  0
    6.3248    1.3976    1.2432 H   0  0  0  0  0  0  0  0  0  0  0  0
    5.4740    3.3980    2.3774 H   0  0  0  0  0  0  0  0  0  0  0  0
    3.0330    3.8153    2.4663 H   0  0  0  0  0  0  0  0  0  0  0  0
    1.4919    2.2846    1.4553 H   0  0  0  0  0  0  0  0  0  0  0  0
  1  2  2  0
  2  3  1  0
  3  4  2  0
  4  5  1  0
  4  6  1  0
  6  7  2  0
  7  8  1  0
  8  9  2  0
  9 10  1  0
 10 11  2  0
 10 12  1  0
 12 13  1  0
 13 14  2  0
 14 15  1  0
 15 16  2  0
 16 17  1  0
 17 18  1  0
 18 19  2  0
 19 20  1  0
 20 21  2  0
 21 22  1  0
 22 23  2  0
 23 24  1  0
 24 25  2  0
 25 26  1  0
 26 27  2  0
 27 28  1  0
 28 29  2  0
  5  1  1  0
 11  6  1  0
 29 13  1  0
 14  9  1  0
 19 15  1  0
 29 20  1  0
 28 23  1  0
  1 30  1  0
  3 31  1  0
  7 32  1  0
  8 33  1  0
 11 34  1  0
 12 35  1  0
 16 36  1  0
 17 37  1  0
 18 38  1  0
 21 39  1  0
 22 40  1  0
 24 41  1  0
 25 42  1  0
 26 43  1  0
 27 44  1  0
M  END
