
     RDKit          3D

 46 53  0  0  0  0  0  0  0  0999 V2000
    7.8259    1.1410   -0.4331 C   0  0  0  0  0  0  0  0  0  0  0  0
    7.8764    0.0180    0.2460 N   0  0  0  0  0  0  0  0  0  0  0  0
    6.5893   -0.4377    0.4599 C   0  0  0  0  0  0  0  0  0  0  0  0
    5.5667    0.3424   -0.0558 C   0  0  0  0  0  0  0  0  0  0  0  0
    6.2630    1.7053   -0.8465 S   0  0  0  0  0  0  0  0  0  0  0  0
    4.1195    0.1293   -0.0215 C   0  0  0  0  0  0  0  0  0  0  0  0
    3.5781   -1.1441   -0.1090 C   0  0  0  0  0  0  0  0  0  0  0  0
    2.2503   -1.4374   -0.0712 N   0  0  0  0  0  0  0  0  0  0  0  0
    1.3262   -0.4549    0.0519 C   0  0  0  0  0  0  0  0  0  0  0  0
    1.8154    0.8732    0.1523 C   0  0  0  0  0  0  0  0  0  0  0  0
    3.2030    1.1626    0.1208 C   0  0  0  0  0  0  0  0  0  0  0  0
    0.7843    1.8137    0.3394 C   0  0  0  0  0  0  0  0  0  0  0  0
    0.9530    3.1504    0.6196 C   0  0  0  0  0  0  0  0  0  0  0  0
   -0.2923    3.6690    0.8755 N   0  0  0  0  0  0  0  0  0  0  0  0
   -1.2383    2.6760    0.7691 C   0  0  0  0  0  0  0  0  0  0  0  0
   -0.6163    1.5289    0.3282 C   0  0  0  0  0  0  0  0  0  0  0  0
   -1.2188    0.2590    0.1037 C   0  0  0  0  0  0  0  0  0  0  0  0
   -2.6867   -0.0767   -0.0256 C   0  0  0  0  0  0  0  0  0  0  0  0
   -3.8185    0.7501   -0.3528 C   0  0  0  0  0  0  0  0  0  0  0  0
   -3.7265    1.9954   -0.9356 C   0  0  0  0  0  0  0  0  0  0  0  0
   -5.2582    2.7304   -1.1896 S   0  0  0  0  0  0  0  0  0  0  0  0
   -6.0873    1.3197   -0.6847 C   0  0  0  0  0  0  0  0  0  0  0  0
   -5.2060    0.3277   -0.3271 C   0  0  0  0  0  0  0  0  0  0  0  0
   -5.6620   -0.9462   -0.0183 C   0  0  0  0  0  0  0  0  0  0  0  0
   -4.5896   -1.8294    0.1618 C   0  0  0  0  0  0  0  0  0  0  0  0
   -3.1921   -1.4274    0.1236 C   0  0  0  0  0  0  0  0  0  0  0  0
   -2.1150   -2.3367    0.1947 C   0  0  0  0  0  0  0  0  0  0  0  0
   -2.2350   -3.7066    0.2852 C   0  0  0  0  0  0  0  0  0  0  0  0
   -0.9687   -4.2343    0.2929 N   0  0  0  0  0  0  0  0  0  0  0  0
   -0.0436   -3.2239    0.2115 C   0  0  0  0  0  0  0  0  0  0  0  0
   -0.7135   -2.0212    0.1421 C   0  0  0  0  0  0  0  0  0  0  0  0
   -0.1247   -0.7248    0.0858 C   0  0  0  0  0  0  0  0  0  0  0  0
    8.7178    1.6834   -0.7188 H   0  0  0  0  0  0  0  0  0  0  0  0
    6.4528   -1.3592    1.0138 H   0  0  0  0  0  0  0  0  0  0  0  0
    4.2112   -2.0204   -0.2275 H   0  0  0  0  0  0  0  0  0  0  0  0
    3.5395    2.1896    0.2212 H   0  0  0  0  0  0  0  0  0  0  0  0
    1.8310    3.7742    0.7158 H   0  0  0  0  0  0  0  0  0  0  0  0
   -0.4800    4.6203    1.1665 H   0  0  0  0  0  0  0  0  0  0  0  0
   -2.2607    2.8926    1.0446 H   0  0  0  0  0  0  0  0  0  0  0  0
   -2.8474    2.5383   -1.2476 H   0  0  0  0  0  0  0  0  0  0  0  0
   -7.1675    1.2858   -0.7241 H   0  0  0  0  0  0  0  0  0  0  0  0
   -6.6956   -1.2637   -0.0019 H   0  0  0  0  0  0  0  0  0  0  0  0
   -4.8315   -2.8784    0.3251 H   0  0  0  0  0  0  0  0  0  0  0  0
   -3.0908   -4.3645    0.3370 H   0  0  0  0  0  0  0  0  0  0  0  0
   -0.7456   -5.2194    0.3513 H   0  0  0  0  0  0  0  0  0  0  0  0
    1.0088   -3.4697    0.2174 H   0  0  0  0  0  0  0  0  0  0  0  0
  1  2  2  0
  2  3  1  0
  3  4  2  0
  4  5  1  0
  4  6  1  0
  6  7  2  0
  7  8  1  0
  8  9  2  0
  9 10  1  0
 10 11  2  0
 10 12  1  0
 12 13  2  0
 13 14  1  0
 14 15  1  0
 15 16  2  0
 16 17  1  0
 17 18  1  0
 18 19  1  0
 19 20  2  0
 20 21  1  0
 21 22  1  0
 22 23  2  0
 23 24  1  0
 24 25  2  0
 25 26  1  0
 26 27  1  0
 27 28  2  0
 28 29  1  0
 29 30  1  0
 30 31  2  0
 31 32  1  0
  5  1  1  0
 11  6  1  0
 16 12  1  0
 32 17  2  0
 32  9  1  0
 26 18  2  0
 31 27  1  0
 23 19  1  0
  1 33  1  0
  3 34  1  0
  7 35  1  0
 11 36  1  0
 13 37  1  0
 14 38  1  0
 15 39  1  0
 20 40  1  0
 22 41  1  0
 24 42  1  0
 25 43  1  0
 28 44  1  0
 29 45  1  0
 30 46  1  0
M  END
