
     RDKit          3D

 43 49  0  0  0  0  0  0  0  0999 V2000
    7.8610    1.0000    1.2955 C   0  0  0  0  0  0  0  0  0  0  0  0
    7.2367    2.1231    1.5685 N   0  0  0  0  0  0  0  0  0  0  0  0
    5.9007    1.9845    1.2374 C   0  0  0  0  0  0  0  0  0  0  0  0
    5.5206    0.7601    0.7117 C   0  0  0  0  0  0  0  0  0  0  0  0
    6.9034   -0.2621    0.6477 S   0  0  0  0  0  0  0  0  0  0  0  0
    4.2076    0.3319    0.2970 C   0  0  0  0  0  0  0  0  0  0  0  0
    2.8114    0.8448    1.1724 S   0  0  0  0  0  0  0  0  0  0  0  0
    1.7288   -0.0282    0.1681 C   0  0  0  0  0  0  0  0  0  0  0  0
    0.3127    0.0008    0.4110 C   0  0  0  0  0  0  0  0  0  0  0  0
   -0.7611    0.7009   -0.7352 S   0  0  0  0  0  0  0  0  0  0  0  0
   -2.1554    0.3371    0.2045 C   0  0  0  0  0  0  0  0  0  0  0  0
   -3.4668    0.7178   -0.2869 C   0  0  0  0  0  0  0  0  0  0  0  0
   -4.2348    1.7648    0.2778 C   0  0  0  0  0  0  0  0  0  0  0  0
   -5.5291    2.1502   -0.1988 C   0  0  0  0  0  0  0  0  0  0  0  0
   -6.1895    1.5265   -1.2795 C   0  0  0  0  0  0  0  0  0  0  0  0
   -5.4357    0.4849   -1.8218 C   0  0  0  0  0  0  0  0  0  0  0  0
   -5.8842   -0.2768   -2.8722 C   0  0  0  0  0  0  0  0  0  0  0  0
   -4.7409   -1.4877   -3.2955 S   0  0  0  0  0  0  0  0  0  0  0  0
   -3.6451   -0.9903   -2.0657 C   0  0  0  0  0  0  0  0  0  0  0  0
   -4.1282    0.0845   -1.3544 C   0  0  0  0  0  0  0  0  0  0  0  0
   -1.8023   -0.2680    1.3899 C   0  0  0  0  0  0  0  0  0  0  0  0
   -2.7041   -0.6424    2.3445 N   0  0  0  0  0  0  0  0  0  0  0  0
   -2.0817   -1.2318    3.4000 C   0  0  0  0  0  0  0  0  0  0  0  0
   -0.7017   -1.4332    3.5115 C   0  0  0  0  0  0  0  0  0  0  0  0
    0.2210   -1.0681    2.5816 N   0  0  0  0  0  0  0  0  0  0  0  0
   -0.3755   -0.4711    1.5066 C   0  0  0  0  0  0  0  0  0  0  0  0
    2.4082   -0.6909   -0.8282 C   0  0  0  0  0  0  0  0  0  0  0  0
    1.7964   -1.4605   -1.7776 N   0  0  0  0  0  0  0  0  0  0  0  0
    2.7029   -1.9868   -2.6419 C   0  0  0  0  0  0  0  0  0  0  0  0
    4.0836   -1.7792   -2.5823 C   0  0  0  0  0  0  0  0  0  0  0  0
    4.7212   -1.0231   -1.6504 N   0  0  0  0  0  0  0  0  0  0  0  0
    3.8393   -0.4813   -0.7574 C   0  0  0  0  0  0  0  0  0  0  0  0
    8.9211    0.8719    1.4703 H   0  0  0  0  0  0  0  0  0  0  0  0
    5.2391    2.8277    1.3991 H   0  0  0  0  0  0  0  0  0  0  0  0
   -3.8249    2.3134    1.1269 H   0  0  0  0  0  0  0  0  0  0  0  0
   -6.0340    2.9730    0.3087 H   0  0  0  0  0  0  0  0  0  0  0  0
   -7.1696    1.8323   -1.6209 H   0  0  0  0  0  0  0  0  0  0  0  0
   -6.8156   -0.2018   -3.4162 H   0  0  0  0  0  0  0  0  0  0  0  0
   -2.7127   -1.5247   -1.9468 H   0  0  0  0  0  0  0  0  0  0  0  0
   -2.7457   -1.5572    4.1961 H   0  0  0  0  0  0  0  0  0  0  0  0
   -0.2916   -1.9154    4.3947 H   0  0  0  0  0  0  0  0  0  0  0  0
    2.2785   -2.6100   -3.4243 H   0  0  0  0  0  0  0  0  0  0  0  0
    4.7360   -2.2397   -3.3191 H   0  0  0  0  0  0  0  0  0  0  0  0
  1  2  2  0
  2  3  1  0
  3  4  2  0
  4  5  1  0
  4  6  1  0
  6  7  1  0
  7  8  1  0
  8  9  1  0
  9 10  1  0
 10 11  1  0
 11 12  1  0
 12 13  2  0
 13 14  1  0
 14 15  2  0
 15 16  1  0
 16 17  2  0
 17 18  1  0
 18 19  1  0
 19 20  2  0
 11 21  2  0
 21 22  1  0
 22 23  2  0
 23 24  1  0
 24 25  2  0
 25 26  1  0
  8 27  2  0
 27 28  1  0
 28 29  2  0
 29 30  1  0
 30 31  2  0
 31 32  1  0
  5  1  1  0
 32  6  2  0
 26  9  2  0
 32 27  1  0
 20 12  1  0
 26 21  1  0
 20 16  1  0
  1 33  1  0
  3 34  1  0
 13 35  1  0
 14 36  1  0
 15 37  1  0
 17 38  1  0
 19 39  1  0
 23 40  1  0
 24 41  1  0
 29 42  1  0
 30 43  1  0
M  END
