
     RDKit          3D

 41 48  0  0  0  0  0  0  0  0999 V2000
   -5.9993   -1.7834   -0.5412 C   0  0  0  0  0  0  0  0  0  0  0  0
   -4.9540   -2.3128   -1.2478 O   0  0  0  0  0  0  0  0  0  0  0  0
   -3.8441   -1.5615   -0.9687 C   0  0  0  0  0  0  0  0  0  0  0  0
   -4.1647   -0.5670   -0.0790 C   0  0  0  0  0  0  0  0  0  0  0  0
   -3.3390    0.4237    0.4648 C   0  0  0  0  0  0  0  0  0  0  0  0
   -4.1054    1.2716    1.3127 C   0  0  0  0  0  0  0  0  0  0  0  0
   -5.5165    1.1186    1.5714 C   0  0  0  0  0  0  0  0  0  0  0  0
   -6.3228    0.1025    1.0115 C   0  0  0  0  0  0  0  0  0  0  0  0
   -5.5606   -0.7080    0.1832 C   0  0  0  0  0  0  0  0  0  0  0  0
   -1.9135    0.5572    0.2130 C   0  0  0  0  0  0  0  0  0  0  0  0
   -0.9954   -0.4992    0.4924 C   0  0  0  0  0  0  0  0  0  0  0  0
    0.3731   -0.3230    0.2341 C   0  0  0  0  0  0  0  0  0  0  0  0
    1.4730   -1.1468    0.3984 N   0  0  0  0  0  0  0  0  0  0  0  0
    2.5940   -0.4609   -0.0200 C   0  0  0  0  0  0  0  0  0  0  0  0
    2.2372    0.7904   -0.4492 C   0  0  0  0  0  0  0  0  0  0  0  0
    3.3585    1.4769   -0.8668 N   0  0  0  0  0  0  0  0  0  0  0  0
    4.4597    0.6538   -0.7048 C   0  0  0  0  0  0  0  0  0  0  0  0
    5.8289    0.8332   -0.9632 C   0  0  0  0  0  0  0  0  0  0  0  0
    6.7257   -0.2266   -0.6822 C   0  0  0  0  0  0  0  0  0  0  0  0
    6.1976   -1.4348   -0.1468 C   0  0  0  0  0  0  0  0  0  0  0  0
    6.8947   -2.5409    0.1797 N   0  0  0  0  0  0  0  0  0  0  0  0
    5.7799   -3.6559    0.7604 S   0  0  0  0  0  0  0  0  0  0  0  0
    4.3488   -2.7809    0.6244 N   0  0  0  0  0  0  0  0  0  0  0  0
    4.7823   -1.6348    0.1258 C   0  0  0  0  0  0  0  0  0  0  0  0
    3.9697   -0.5239   -0.1865 C   0  0  0  0  0  0  0  0  0  0  0  0
    0.8611    0.8534   -0.2824 C   0  0  0  0  0  0  0  0  0  0  0  0
    0.0496    1.9644   -0.5890 C   0  0  0  0  0  0  0  0  0  0  0  0
    0.4997    3.1062   -1.0838 N   0  0  0  0  0  0  0  0  0  0  0  0
   -0.9153    3.9985   -1.2290 S   0  0  0  0  0  0  0  0  0  0  0  0
   -2.0417    2.9022   -0.6510 N   0  0  0  0  0  0  0  0  0  0  0  0
   -1.3718    1.7759   -0.3188 C   0  0  0  0  0  0  0  0  0  0  0  0
   -6.9503   -2.2787   -0.6749 H   0  0  0  0  0  0  0  0  0  0  0  0
   -2.9421   -1.8667   -1.4798 H   0  0  0  0  0  0  0  0  0  0  0  0
   -3.5989    2.1023    1.8086 H   0  0  0  0  0  0  0  0  0  0  0  0
   -5.9872    1.8395    2.2417 H   0  0  0  0  0  0  0  0  0  0  0  0
   -7.3799   -0.0010    1.2084 H   0  0  0  0  0  0  0  0  0  0  0  0
   -1.3556   -1.4356    0.9144 H   0  0  0  0  0  0  0  0  0  0  0  0
    1.5061   -2.0941    0.7579 H   0  0  0  0  0  0  0  0  0  0  0  0
    3.3259    2.4246   -1.2247 H   0  0  0  0  0  0  0  0  0  0  0  0
    6.2029    1.7681   -1.3727 H   0  0  0  0  0  0  0  0  0  0  0  0
    7.7896   -0.1263   -0.8681 H   0  0  0  0  0  0  0  0  0  0  0  0
  1  2  1  0
  2  3  1  0
  3  4  2  0
  4  5  1  0
  5  6  2  0
  6  7  1  0
  7  8  2  0
  8  9  1  0
  5 10  1  0
 10 11  2  0
 11 12  1  0
 12 13  1  0
 13 14  1  0
 14 15  2  0
 15 16  1  0
 16 17  1  0
 17 18  1  0
 18 19  2  0
 19 20  1  0
 20 21  2  0
 21 22  1  0
 22 23  1  0
 23 24  2  0
 24 25  1  0
 15 26  1  0
 26 27  1  0
 27 28  2  0
 28 29  1  0
 29 30  1  0
 30 31  2  0
  9  1  2  0
 31 10  1  0
  9  4  1  0
 26 12  2  0
 31 27  1  0
 25 14  1  0
 25 17  2  0
 24 20  1  0
  1 32  1  0
  3 33  1  0
  6 34  1  0
  7 35  1  0
  8 36  1  0
 11 37  1  0
 13 38  1  0
 16 39  1  0
 18 40  1  0
 19 41  1  0
M  END
