
     RDKit          3D

 42 49  0  0  0  0  0  0  0  0999 V2000
   -5.9379    0.6593   -1.9041 C   0  0  0  0  0  0  0  0  0  0  0  0
   -4.9180    0.3903   -2.7770 O   0  0  0  0  0  0  0  0  0  0  0  0
   -3.7899    0.1576   -2.0363 C   0  0  0  0  0  0  0  0  0  0  0  0
   -4.0815    0.2713   -0.7009 C   0  0  0  0  0  0  0  0  0  0  0  0
   -3.2284    0.1151    0.3947 C   0  0  0  0  0  0  0  0  0  0  0  0
   -3.9405    0.3413    1.6027 C   0  0  0  0  0  0  0  0  0  0  0  0
   -5.3433    0.6708    1.6729 C   0  0  0  0  0  0  0  0  0  0  0  0
   -6.1860    0.8164    0.5462 C   0  0  0  0  0  0  0  0  0  0  0  0
   -5.4666    0.5991   -0.6204 C   0  0  0  0  0  0  0  0  0  0  0  0
   -1.8203   -0.2078    0.3105 C   0  0  0  0  0  0  0  0  0  0  0  0
   -0.8101    0.7734    0.5172 C   0  0  0  0  0  0  0  0  0  0  0  0
    0.5553    0.4272    0.4228 C   0  0  0  0  0  0  0  0  0  0  0  0
    1.7076    1.1655    0.5667 N   0  0  0  0  0  0  0  0  0  0  0  0
    2.7995    0.3364    0.3716 C   0  0  0  0  0  0  0  0  0  0  0  0
    2.3682   -0.9425    0.0993 C   0  0  0  0  0  0  0  0  0  0  0  0
    3.6954   -2.0439   -0.1582 S   0  0  0  0  0  0  0  0  0  0  0  0
    4.8560   -0.7775    0.1009 C   0  0  0  0  0  0  0  0  0  0  0  0
    6.2674   -0.8335    0.0689 C   0  0  0  0  0  0  0  0  0  0  0  0
    7.0344    0.3274    0.3107 C   0  0  0  0  0  0  0  0  0  0  0  0
    6.3347    1.5287    0.5819 C   0  0  0  0  0  0  0  0  0  0  0  0
    6.8850    2.7313    0.8359 N   0  0  0  0  0  0  0  0  0  0  0  0
    5.6160    3.7994    1.0856 S   0  0  0  0  0  0  0  0  0  0  0  0
    4.2980    2.7762    0.8822 N   0  0  0  0  0  0  0  0  0  0  0  0
    4.8837    1.6170    0.6214 C   0  0  0  0  0  0  0  0  0  0  0  0
    4.1946    0.3974    0.3657 C   0  0  0  0  0  0  0  0  0  0  0  0
    0.9733   -0.8528    0.1376 C   0  0  0  0  0  0  0  0  0  0  0  0
    0.0387   -1.8962   -0.0745 C   0  0  0  0  0  0  0  0  0  0  0  0
    0.2871   -3.2061   -0.3572 C   0  0  0  0  0  0  0  0  0  0  0  0
   -1.2148   -4.0368   -0.5059 S   0  0  0  0  0  0  0  0  0  0  0  0
   -2.1289   -2.6066   -0.1831 C   0  0  0  0  0  0  0  0  0  0  0  0
   -1.3264   -1.5033    0.0277 C   0  0  0  0  0  0  0  0  0  0  0  0
   -6.8964    0.8658   -2.3583 H   0  0  0  0  0  0  0  0  0  0  0  0
   -2.8987   -0.0684   -2.6051 H   0  0  0  0  0  0  0  0  0  0  0  0
   -3.3980    0.2557    2.5462 H   0  0  0  0  0  0  0  0  0  0  0  0
   -5.7786    0.8165    2.6628 H   0  0  0  0  0  0  0  0  0  0  0  0
   -7.2355    1.0647    0.6104 H   0  0  0  0  0  0  0  0  0  0  0  0
   -1.0955    1.7996    0.7406 H   0  0  0  0  0  0  0  0  0  0  0  0
    1.8012    2.1530    0.7789 H   0  0  0  0  0  0  0  0  0  0  0  0
    6.7701   -1.7752   -0.1431 H   0  0  0  0  0  0  0  0  0  0  0  0
    8.1184    0.3048    0.2905 H   0  0  0  0  0  0  0  0  0  0  0  0
    1.2189   -3.7364   -0.4844 H   0  0  0  0  0  0  0  0  0  0  0  0
   -3.2084   -2.6741   -0.1711 H   0  0  0  0  0  0  0  0  0  0  0  0
  1  2  1  0
  2  3  1  0
  3  4  2  0
  4  5  1  0
  5  6  2  0
  6  7  1  0
  7  8  2  0
  8  9  1  0
  5 10  1  0
 10 11  2  0
 11 12  1  0
 12 13  1  0
 13 14  1  0
 14 15  2  0
 15 16  1  0
 16 17  1  0
 17 18  1  0
 18 19  2  0
 19 20  1  0
 20 21  2  0
 21 22  1  0
 22 23  1  0
 23 24  2  0
 24 25  1  0
 15 26  1  0
 26 27  1  0
 27 28  2  0
 28 29  1  0
 29 30  1  0
 30 31  2  0
  9  1  2  0
 31 10  1  0
  9  4  1  0
 26 12  2  0
 31 27  1  0
 25 14  1  0
 25 17  2  0
 24 20  1  0
  1 32  1  0
  3 33  1  0
  6 34  1  0
  7 35  1  0
  8 36  1  0
 11 37  1  0
 13 38  1  0
 18 39  1  0
 19 40  1  0
 28 41  1  0
 30 42  1  0
M  END
