
     RDKit          3D

 31 35  0  0  0  0  0  0  0  0999 V2000
    4.2838   -0.7793    2.2928 C   0  0  0  0  0  0  0  0  0  0  0  0
    3.2157   -0.2941    2.9970 O   0  0  0  0  0  0  0  0  0  0  0  0
    2.2032   -0.0609    2.1051 C   0  0  0  0  0  0  0  0  0  0  0  0
    2.6046   -0.4122    0.8410 C   0  0  0  0  0  0  0  0  0  0  0  0
    1.9059   -0.3355   -0.3669 C   0  0  0  0  0  0  0  0  0  0  0  0
    2.7266   -0.7428   -1.4481 C   0  0  0  0  0  0  0  0  0  0  0  0
    4.0891   -1.1926   -1.3052 C   0  0  0  0  0  0  0  0  0  0  0  0
    4.7769   -1.2758   -0.0718 C   0  0  0  0  0  0  0  0  0  0  0  0
    3.9559   -0.8570    0.9663 C   0  0  0  0  0  0  0  0  0  0  0  0
    0.5307    0.1050   -0.5060 C   0  0  0  0  0  0  0  0  0  0  0  0
   -0.0211    0.9707   -1.4489 C   0  0  0  0  0  0  0  0  0  0  0  0
   -1.3867    1.0119   -1.1270 C   0  0  0  0  0  0  0  0  0  0  0  0
   -2.5134    1.6308   -1.5864 O   0  0  0  0  0  0  0  0  0  0  0  0
   -3.5056    1.1768   -0.7603 C   0  0  0  0  0  0  0  0  0  0  0  0
   -4.8524    1.5111   -0.8083 C   0  0  0  0  0  0  0  0  0  0  0  0
   -5.6481    0.8943    0.1633 C   0  0  0  0  0  0  0  0  0  0  0  0
   -5.0698    0.0167    1.0850 C   0  0  0  0  0  0  0  0  0  0  0  0
   -3.7563   -0.3201    1.1449 N   0  0  0  0  0  0  0  0  0  0  0  0
   -3.0254    0.2951    0.1933 C   0  0  0  0  0  0  0  0  0  0  0  0
   -1.6559    0.2123   -0.0727 C   0  0  0  0  0  0  0  0  0  0  0  0
   -0.4825   -0.3681    0.3157 N   0  0  0  0  0  0  0  0  0  0  0  0
    5.1661   -0.9988    2.8769 H   0  0  0  0  0  0  0  0  0  0  0  0
    1.3013    0.3519    2.5339 H   0  0  0  0  0  0  0  0  0  0  0  0
    2.3069   -0.7306   -2.4550 H   0  0  0  0  0  0  0  0  0  0  0  0
    4.6208   -1.4874   -2.2113 H   0  0  0  0  0  0  0  0  0  0  0  0
    5.7998   -1.6108    0.0215 H   0  0  0  0  0  0  0  0  0  0  0  0
    0.4950    1.4959   -2.2395 H   0  0  0  0  0  0  0  0  0  0  0  0
   -5.2479    2.1976   -1.5449 H   0  0  0  0  0  0  0  0  0  0  0  0
   -6.7145    1.0956    0.2033 H   0  0  0  0  0  0  0  0  0  0  0  0
   -5.6902   -0.4624    1.8401 H   0  0  0  0  0  0  0  0  0  0  0  0
   -0.4123   -1.0373    1.0733 H   0  0  0  0  0  0  0  0  0  0  0  0
  1  2  1  0
  2  3  1  0
  3  4  2  0
  4  5  1  0
  5  6  2  0
  6  7  1  0
  7  8  2  0
  8  9  1  0
  5 10  1  0
 10 11  2  0
 11 12  1  0
 12 13  1  0
 13 14  1  0
 14 15  2  0
 15 16  1  0
 16 17  2  0
 17 18  1  0
 18 19  2  0
 19 20  1  0
 20 21  1  0
  9  1  2  0
 21 10  1  0
  9  4  1  0
 20 12  2  0
 19 14  1  0
  1 22  1  0
  3 23  1  0
  6 24  1  0
  7 25  1  0
  8 26  1  0
 11 27  1  0
 15 28  1  0
 16 29  1  0
 17 30  1  0
 21 31  1  0
M  END
