
     RDKit          3D

 49 55  0  0  0  0  0  0  0  0999 V2000
    7.6428    1.0079   -0.8256 C   0  0  0  0  0  0  0  0  0  0  0  0
    6.8320    1.9009   -1.4716 O   0  0  0  0  0  0  0  0  0  0  0  0
    5.5397    1.6137   -1.1231 C   0  0  0  0  0  0  0  0  0  0  0  0
    5.5144    0.5369   -0.2728 C   0  0  0  0  0  0  0  0  0  0  0  0
    4.4122   -0.0805    0.3289 C   0  0  0  0  0  0  0  0  0  0  0  0
    4.8551   -1.1367    1.1741 C   0  0  0  0  0  0  0  0  0  0  0  0
    6.2353   -1.5115    1.3646 C   0  0  0  0  0  0  0  0  0  0  0  0
    7.3280   -0.8716    0.7373 C   0  0  0  0  0  0  0  0  0  0  0  0
    6.8762    0.1588   -0.0742 C   0  0  0  0  0  0  0  0  0  0  0  0
    3.0226    0.2974    0.1303 C   0  0  0  0  0  0  0  0  0  0  0  0
    2.4267    0.3006   -1.1363 C   0  0  0  0  0  0  0  0  0  0  0  0
    1.0875    0.6614   -1.2823 C   0  0  0  0  0  0  0  0  0  0  0  0
    0.3667    1.0057   -0.1449 C   0  0  0  0  0  0  0  0  0  0  0  0
    0.8999    1.0068    1.0977 N   0  0  0  0  0  0  0  0  0  0  0  0
    2.2052    0.6584    1.2017 C   0  0  0  0  0  0  0  0  0  0  0  0
   -1.0363    1.3968   -0.2223 C   0  0  0  0  0  0  0  0  0  0  0  0
   -1.3122    3.0808   -0.4719 S   0  0  0  0  0  0  0  0  0  0  0  0
   -3.0005    2.8724   -0.5402 C   0  0  0  0  0  0  0  0  0  0  0  0
   -3.3692    1.5573   -0.3733 C   0  0  0  0  0  0  0  0  0  0  0  0
   -2.2283    0.6847   -0.1588 C   0  0  0  0  0  0  0  0  0  0  0  0
   -2.3642   -0.7301    0.0561 C   0  0  0  0  0  0  0  0  0  0  0  0
   -1.3097   -1.6521    0.3110 C   0  0  0  0  0  0  0  0  0  0  0  0
   -1.5568   -3.0079    0.4898 C   0  0  0  0  0  0  0  0  0  0  0  0
   -2.8556   -3.4729    0.4247 C   0  0  0  0  0  0  0  0  0  0  0  0
   -3.9084   -2.5801    0.1916 C   0  0  0  0  0  0  0  0  0  0  0  0
   -3.7316   -1.1847    0.0042 C   0  0  0  0  0  0  0  0  0  0  0  0
   -4.8771   -0.2819   -0.2214 C   0  0  0  0  0  0  0  0  0  0  0  0
   -6.2233   -0.7328   -0.2644 C   0  0  0  0  0  0  0  0  0  0  0  0
   -7.3208    0.1156   -0.4724 C   0  0  0  0  0  0  0  0  0  0  0  0
   -7.1290    1.4746   -0.6499 C   0  0  0  0  0  0  0  0  0  0  0  0
   -5.8389    1.9855   -0.6207 C   0  0  0  0  0  0  0  0  0  0  0  0
   -4.7227    1.1285   -0.4109 C   0  0  0  0  0  0  0  0  0  0  0  0
    8.7018    1.1252   -1.0063 H   0  0  0  0  0  0  0  0  0  0  0  0
    4.7911    2.2611   -1.5579 H   0  0  0  0  0  0  0  0  0  0  0  0
    4.1062   -1.7202    1.7136 H   0  0  0  0  0  0  0  0  0  0  0  0
    6.4446   -2.3447    2.0375 H   0  0  0  0  0  0  0  0  0  0  0  0
    8.3587   -1.1582    0.8891 H   0  0  0  0  0  0  0  0  0  0  0  0
    2.9982    0.0138   -2.0166 H   0  0  0  0  0  0  0  0  0  0  0  0
    0.6199    0.6669   -2.2614 H   0  0  0  0  0  0  0  0  0  0  0  0
    2.5932    0.6853    2.2177 H   0  0  0  0  0  0  0  0  0  0  0  0
   -3.6173    3.7434   -0.7042 H   0  0  0  0  0  0  0  0  0  0  0  0
   -0.2797   -1.3309    0.3968 H   0  0  0  0  0  0  0  0  0  0  0  0
   -0.7360   -3.6919    0.6858 H   0  0  0  0  0  0  0  0  0  0  0  0
   -3.0639   -4.5307    0.5638 H   0  0  0  0  0  0  0  0  0  0  0  0
   -4.8980   -3.0268    0.1650 H   0  0  0  0  0  0  0  0  0  0  0  0
   -6.4647   -1.7834   -0.1317 H   0  0  0  0  0  0  0  0  0  0  0  0
   -8.3260   -0.2987   -0.4921 H   0  0  0  0  0  0  0  0  0  0  0  0
   -7.9776    2.1337   -0.8097 H   0  0  0  0  0  0  0  0  0  0  0  0
   -5.7102    3.0541   -0.7621 H   0  0  0  0  0  0  0  0  0  0  0  0
  1  2  1  0
  2  3  1  0
  3  4  2  0
  4  5  1  0
  5  6  2  0
  6  7  1  0
  7  8  2  0
  8  9  1  0
  5 10  1  0
 10 11  2  0
 11 12  1  0
 12 13  2  0
 13 14  1  0
 14 15  2  0
 13 16  1  0
 16 17  1  0
 17 18  1  0
 18 19  2  0
 19 20  1  0
 20 21  1  0
 21 22  2  0
 22 23  1  0
 23 24  2  0
 24 25  1  0
 25 26  2  0
 26 27  1  0
 27 28  2  0
 28 29  1  0
 29 30  2  0
 30 31  1  0
 31 32  2  0
  9  1  2  0
 15 10  1  0
 20 16  2  0
 26 21  1  0
 32 27  1  0
  9  4  1  0
 32 19  1  0
  1 33  1  0
  3 34  1  0
  6 35  1  0
  7 36  1  0
  8 37  1  0
 11 38  1  0
 12 39  1  0
 15 40  1  0
 18 41  1  0
 22 42  1  0
 23 43  1  0
 24 44  1  0
 25 45  1  0
 28 46  1  0
 29 47  1  0
 30 48  1  0
 31 49  1  0
M  END
