
     RDKit          3D

 45 51  0  0  0  0  0  0  0  0999 V2000
   -7.4598    0.8373    0.2397 C   0  0  0  0  0  0  0  0  0  0  0  0
   -6.5465    1.6586    0.8418 O   0  0  0  0  0  0  0  0  0  0  0  0
   -5.3030    1.1338    0.6111 C   0  0  0  0  0  0  0  0  0  0  0  0
   -5.4114   -0.0156   -0.1310 C   0  0  0  0  0  0  0  0  0  0  0  0
   -4.3975   -0.8580   -0.6011 C   0  0  0  0  0  0  0  0  0  0  0  0
   -4.9677   -1.9176   -1.3621 C   0  0  0  0  0  0  0  0  0  0  0  0
   -6.3806   -2.0935   -1.5950 C   0  0  0  0  0  0  0  0  0  0  0  0
   -7.3822   -1.2272   -1.1026 C   0  0  0  0  0  0  0  0  0  0  0  0
   -6.8064   -0.1974   -0.3733 C   0  0  0  0  0  0  0  0  0  0  0  0
   -2.9789   -0.6696   -0.3875 C   0  0  0  0  0  0  0  0  0  0  0  0
   -2.0495   -0.5184   -1.4238 C   0  0  0  0  0  0  0  0  0  0  0  0
   -0.6920   -0.3454   -1.3259 N   0  0  0  0  0  0  0  0  0  0  0  0
   -0.0756   -0.2752   -0.1024 C   0  0  0  0  0  0  0  0  0  0  0  0
    1.3588   -0.0758   -0.0717 C   0  0  0  0  0  0  0  0  0  0  0  0
    2.2611   -0.9053   -0.7737 C   0  0  0  0  0  0  0  0  0  0  0  0
    3.6649   -0.7305   -0.7568 C   0  0  0  0  0  0  0  0  0  0  0  0
    4.3227    0.3026   -0.0479 C   0  0  0  0  0  0  0  0  0  0  0  0
    5.7793    0.4542   -0.0434 C   0  0  0  0  0  0  0  0  0  0  0  0
    6.4099    1.6635   -0.3622 C   0  0  0  0  0  0  0  0  0  0  0  0
    7.8010    1.7571   -0.3615 C   0  0  0  0  0  0  0  0  0  0  0  0
    8.5352    0.6281   -0.0447 C   0  0  0  0  0  0  0  0  0  0  0  0
    7.9795   -0.5608    0.2648 N   0  0  0  0  0  0  0  0  0  0  0  0
    6.6247   -0.6146    0.2623 C   0  0  0  0  0  0  0  0  0  0  0  0
    3.4596    1.1932    0.6620 C   0  0  0  0  0  0  0  0  0  0  0  0
    3.8333    2.2522    1.4035 N   0  0  0  0  0  0  0  0  0  0  0  0
    2.4537    2.9468    1.9955 S   0  0  0  0  0  0  0  0  0  0  0  0
    1.3036    1.9597    1.3337 N   0  0  0  0  0  0  0  0  0  0  0  0
    1.9515    1.0038    0.6429 C   0  0  0  0  0  0  0  0  0  0  0  0
   -0.8811   -0.4657    1.0524 C   0  0  0  0  0  0  0  0  0  0  0  0
   -0.4783   -0.5313    2.3351 N   0  0  0  0  0  0  0  0  0  0  0  0
   -1.8355   -0.7523    3.2556 S   0  0  0  0  0  0  0  0  0  0  0  0
   -2.9949   -0.8301    2.0770 N   0  0  0  0  0  0  0  0  0  0  0  0
   -2.3727   -0.6613    0.8957 C   0  0  0  0  0  0  0  0  0  0  0  0
   -8.4932    1.1360    0.3424 H   0  0  0  0  0  0  0  0  0  0  0  0
   -4.4828    1.6919    1.0400 H   0  0  0  0  0  0  0  0  0  0  0  0
   -4.3014   -2.6654   -1.7970 H   0  0  0  0  0  0  0  0  0  0  0  0
   -6.6925   -2.9535   -2.1899 H   0  0  0  0  0  0  0  0  0  0  0  0
   -8.4382   -1.3658   -1.2845 H   0  0  0  0  0  0  0  0  0  0  0  0
   -2.3995   -0.5241   -2.4577 H   0  0  0  0  0  0  0  0  0  0  0  0
    1.8562   -1.7302   -1.3642 H   0  0  0  0  0  0  0  0  0  0  0  0
    4.2637   -1.4321   -1.3416 H   0  0  0  0  0  0  0  0  0  0  0  0
    5.8224    2.5440   -0.6134 H   0  0  0  0  0  0  0  0  0  0  0  0
    8.2967    2.6908   -0.6020 H   0  0  0  0  0  0  0  0  0  0  0  0
    9.6210    0.6513   -0.0304 H   0  0  0  0  0  0  0  0  0  0  0  0
    6.2225   -1.5882    0.5326 H   0  0  0  0  0  0  0  0  0  0  0  0
  1  2  1  0
  2  3  1  0
  3  4  2  0
  4  5  1  0
  5  6  2  0
  6  7  1  0
  7  8  2  0
  8  9  1  0
  5 10  1  0
 10 11  2  0
 11 12  1  0
 12 13  2  0
 13 14  1  0
 14 15  2  0
 15 16  1  0
 16 17  2  0
 17 18  1  0
 18 19  2  0
 19 20  1  0
 20 21  2  0
 21 22  1  0
 22 23  2  0
 17 24  1  0
 24 25  2  0
 25 26  1  0
 26 27  1  0
 27 28  2  0
 13 29  1  0
 29 30  2  0
 30 31  1  0
 31 32  1  0
 32 33  2  0
  9  1  2  0
 33 10  1  0
  9  4  1  0
 28 14  1  0
 33 29  1  0
 23 18  1  0
 28 24  1  0
  1 34  1  0
  3 35  1  0
  6 36  1  0
  7 37  1  0
  8 38  1  0
 11 39  1  0
 15 40  1  0
 16 41  1  0
 19 42  1  0
 20 43  1  0
 21 44  1  0
 23 45  1  0
M  END
