
     RDKit          3D

 40 46  0  0  0  0  0  0  0  0999 V2000
   -2.0199   -2.5561    0.9229 C   0  0  0  0  0  0  0  0  0  0  0  0
   -0.9435   -3.3383    1.2624 O   0  0  0  0  0  0  0  0  0  0  0  0
    0.1886   -2.5838    1.0845 C   0  0  0  0  0  0  0  0  0  0  0  0
   -0.2032   -1.3596    0.6451 C   0  0  0  0  0  0  0  0  0  0  0  0
   -1.6056   -1.2975    0.5431 C   0  0  0  0  0  0  0  0  0  0  0  0
   -2.4009   -0.2211    0.1227 C   0  0  0  0  0  0  0  0  0  0  0  0
   -1.6146    0.9081   -0.2375 C   0  0  0  0  0  0  0  0  0  0  0  0
   -0.1968    0.8829   -0.1460 C   0  0  0  0  0  0  0  0  0  0  0  0
    0.7530    1.8381   -0.4360 N   0  0  0  0  0  0  0  0  0  0  0  0
    2.0291    1.3605   -0.1878 C   0  0  0  0  0  0  0  0  0  0  0  0
    3.2671    1.9936   -0.3425 C   0  0  0  0  0  0  0  0  0  0  0  0
    4.4259    1.2654   -0.0133 C   0  0  0  0  0  0  0  0  0  0  0  0
    5.6973    1.8387   -0.1443 C   0  0  0  0  0  0  0  0  0  0  0  0
    6.8287    1.1032    0.1859 C   0  0  0  0  0  0  0  0  0  0  0  0
    6.6495   -0.1887    0.6388 C   0  0  0  0  0  0  0  0  0  0  0  0
    5.4413   -0.7760    0.7786 N   0  0  0  0  0  0  0  0  0  0  0  0
    4.3476   -0.0618    0.4579 C   0  0  0  0  0  0  0  0  0  0  0  0
    3.0974   -0.6534    0.5961 C   0  0  0  0  0  0  0  0  0  0  0  0
    1.9177    0.0466    0.2764 C   0  0  0  0  0  0  0  0  0  0  0  0
    0.5407   -0.2057    0.2855 C   0  0  0  0  0  0  0  0  0  0  0  0
   -3.8513   -0.2439    0.0720 C   0  0  0  0  0  0  0  0  0  0  0  0
   -4.6814   -0.5454    1.1627 C   0  0  0  0  0  0  0  0  0  0  0  0
   -6.0546   -0.5887    1.2004 N   0  0  0  0  0  0  0  0  0  0  0  0
   -6.7889   -0.3102    0.0856 C   0  0  0  0  0  0  0  0  0  0  0  0
   -6.0989    0.0259   -1.0948 C   0  0  0  0  0  0  0  0  0  0  0  0
   -6.6488    0.3345   -2.2804 N   0  0  0  0  0  0  0  0  0  0  0  0
   -5.3885    0.6358   -3.3163 S   0  0  0  0  0  0  0  0  0  0  0  0
   -4.0950    0.4042   -2.3057 N   0  0  0  0  0  0  0  0  0  0  0  0
   -4.5906    0.0630   -1.1010 C   0  0  0  0  0  0  0  0  0  0  0  0
   -2.9778   -3.0507    1.0061 H   0  0  0  0  0  0  0  0  0  0  0  0
    1.1229   -3.0774    1.3061 H   0  0  0  0  0  0  0  0  0  0  0  0
   -2.1077    1.8127   -0.5905 H   0  0  0  0  0  0  0  0  0  0  0  0
    0.5470    2.7625   -0.7860 H   0  0  0  0  0  0  0  0  0  0  0  0
    3.3288    3.0148   -0.7059 H   0  0  0  0  0  0  0  0  0  0  0  0
    5.8128    2.8581   -0.5033 H   0  0  0  0  0  0  0  0  0  0  0  0
    7.8220    1.5265    0.0922 H   0  0  0  0  0  0  0  0  0  0  0  0
    7.4980   -0.8098    0.9114 H   0  0  0  0  0  0  0  0  0  0  0  0
    3.0491   -1.6750    0.9592 H   0  0  0  0  0  0  0  0  0  0  0  0
   -4.2294   -0.7738    2.1299 H   0  0  0  0  0  0  0  0  0  0  0  0
   -7.8669   -0.3578    0.1631 H   0  0  0  0  0  0  0  0  0  0  0  0
  1  2  1  0
  2  3  1  0
  3  4  2  0
  4  5  1  0
  5  6  1  0
  6  7  2  0
  7  8  1  0
  8  9  1  0
  9 10  1  0
 10 11  2  0
 11 12  1  0
 12 13  2  0
 13 14  1  0
 14 15  2  0
 15 16  1  0
 16 17  2  0
 17 18  1  0
 18 19  2  0
 19 20  1  0
  6 21  1  0
 21 22  2  0
 22 23  1  0
 23 24  2  0
 24 25  1  0
 25 26  2  0
 26 27  1  0
 27 28  1  0
 28 29  2  0
  5  1  2  0
 20  8  2  0
 29 21  1  0
 20  4  1  0
 29 25  1  0
 19 10  1  0
 17 12  1  0
  1 30  1  0
  3 31  1  0
  7 32  1  0
  9 33  1  0
 11 34  1  0
 13 35  1  0
 14 36  1  0
 15 37  1  0
 18 38  1  0
 22 39  1  0
 24 40  1  0
M  END
