
     RDKit          3D

 45 52  0  0  0  0  0  0  0  0999 V2000
    2.7943    2.3834   -0.6139 C   0  0  0  0  0  0  0  0  0  0  0  0
    1.8976    3.3445   -0.9581 O   0  0  0  0  0  0  0  0  0  0  0  0
    0.6505    2.8119   -0.8109 C   0  0  0  0  0  0  0  0  0  0  0  0
    0.7194    1.4951   -0.4167 C   0  0  0  0  0  0  0  0  0  0  0  0
    2.1302    1.2477   -0.2222 C   0  0  0  0  0  0  0  0  0  0  0  0
    2.7156    0.0777    0.2604 C   0  0  0  0  0  0  0  0  0  0  0  0
    1.7048   -0.8512    0.5736 C   0  0  0  0  0  0  0  0  0  0  0  0
    0.2767   -0.6096    0.3921 C   0  0  0  0  0  0  0  0  0  0  0  0
   -0.7089   -1.5460    0.7432 C   0  0  0  0  0  0  0  0  0  0  0  0
   -0.4882   -2.7975    1.2648 C   0  0  0  0  0  0  0  0  0  0  0  0
   -1.6713   -3.4405    1.4424 O   0  0  0  0  0  0  0  0  0  0  0  0
   -2.6561   -2.5916    1.0329 C   0  0  0  0  0  0  0  0  0  0  0  0
   -2.1270   -1.3879    0.6261 C   0  0  0  0  0  0  0  0  0  0  0  0
   -2.8128   -0.2495    0.1036 C   0  0  0  0  0  0  0  0  0  0  0  0
   -1.8442    0.7142   -0.3723 C   0  0  0  0  0  0  0  0  0  0  0  0
   -2.3975    1.7862   -1.0950 C   0  0  0  0  0  0  0  0  0  0  0  0
   -3.7713    1.9813   -1.2757 C   0  0  0  0  0  0  0  0  0  0  0  0
   -4.7022    1.1111   -0.7200 C   0  0  0  0  0  0  0  0  0  0  0  0
   -6.0709    1.3662   -0.8822 C   0  0  0  0  0  0  0  0  0  0  0  0
   -6.9843    0.5080   -0.3050 C   0  0  0  0  0  0  0  0  0  0  0  0
   -6.6263   -0.5603    0.4219 N   0  0  0  0  0  0  0  0  0  0  0  0
   -5.2929   -0.7827    0.5567 C   0  0  0  0  0  0  0  0  0  0  0  0
   -4.2534   -0.0143   -0.0054 C   0  0  0  0  0  0  0  0  0  0  0  0
   -0.3590    0.5780   -0.1615 C   0  0  0  0  0  0  0  0  0  0  0  0
    4.1339   -0.1439    0.4584 C   0  0  0  0  0  0  0  0  0  0  0  0
    4.9707    0.6697    1.2371 C   0  0  0  0  0  0  0  0  0  0  0  0
    6.3169    0.5258    1.4726 N   0  0  0  0  0  0  0  0  0  0  0  0
    7.0100   -0.5167    0.9308 C   0  0  0  0  0  0  0  0  0  0  0  0
    6.3042   -1.4359    0.1314 C   0  0  0  0  0  0  0  0  0  0  0  0
    6.8116   -2.5200   -0.4770 N   0  0  0  0  0  0  0  0  0  0  0  0
    5.5514   -3.2375   -1.2834 S   0  0  0  0  0  0  0  0  0  0  0  0
    4.3093   -2.2116   -0.8903 N   0  0  0  0  0  0  0  0  0  0  0  0
    4.8275   -1.2458   -0.1086 C   0  0  0  0  0  0  0  0  0  0  0  0
    3.8320    2.6789   -0.6851 H   0  0  0  0  0  0  0  0  0  0  0  0
   -0.1370    3.5198   -1.0140 H   0  0  0  0  0  0  0  0  0  0  0  0
    2.0186   -1.8114    0.9850 H   0  0  0  0  0  0  0  0  0  0  0  0
    0.3865   -3.3705    1.5381 H   0  0  0  0  0  0  0  0  0  0  0  0
   -3.6394   -3.0310    1.0836 H   0  0  0  0  0  0  0  0  0  0  0  0
   -1.7631    2.4987   -1.6062 H   0  0  0  0  0  0  0  0  0  0  0  0
   -4.0976    2.8424   -1.8575 H   0  0  0  0  0  0  0  0  0  0  0  0
   -6.4270    2.2236   -1.4442 H   0  0  0  0  0  0  0  0  0  0  0  0
   -8.0532    0.6695   -0.4071 H   0  0  0  0  0  0  0  0  0  0  0  0
   -5.0938   -1.6254    1.2044 H   0  0  0  0  0  0  0  0  0  0  0  0
    4.5477    1.5355    1.7502 H   0  0  0  0  0  0  0  0  0  0  0  0
    8.0680   -0.5886    1.1449 H   0  0  0  0  0  0  0  0  0  0  0  0
  1  2  1  0
  2  3  1  0
  3  4  2  0
  4  5  1  0
  5  6  1  0
  6  7  2  0
  7  8  1  0
  8  9  1  0
  9 10  2  0
 10 11  1  0
 11 12  1  0
 12 13  2  0
 13 14  1  0
 14 15  2  0
 15 16  1  0
 16 17  2  0
 17 18  1  0
 18 19  2  0
 19 20  1  0
 20 21  2  0
 21 22  1  0
 22 23  2  0
 15 24  1  0
  6 25  1  0
 25 26  2  0
 26 27  1  0
 27 28  2  0
 28 29  1  0
 29 30  2  0
 30 31  1  0
 31 32  1  0
 32 33  2  0
  5  1  2  0
 24  8  2  0
 33 25  1  0
 24  4  1  0
 33 29  1  0
 13  9  1  0
 23 14  1  0
 23 18  1  0
  1 34  1  0
  3 35  1  0
  7 36  1  0
 10 37  1  0
 12 38  1  0
 16 39  1  0
 17 40  1  0
 19 41  1  0
 20 42  1  0
 22 43  1  0
 26 44  1  0
 28 45  1  0
M  END
