
     RDKit          3D

 48 55  0  0  0  0  0  0  0  0999 V2000
   -1.4671   -0.2334    2.6202 C   0  0  0  0  0  0  0  0  0  0  0  0
   -0.4962    0.0956    3.5155 O   0  0  0  0  0  0  0  0  0  0  0  0
    0.6819    0.1860    2.8289 C   0  0  0  0  0  0  0  0  0  0  0  0
    0.4898   -0.0809    1.4932 C   0  0  0  0  0  0  0  0  0  0  0  0
   -0.9168   -0.3543    1.3704 C   0  0  0  0  0  0  0  0  0  0  0  0
   -1.5950   -0.6786    0.1973 C   0  0  0  0  0  0  0  0  0  0  0  0
   -0.7002   -0.7105   -0.8948 C   0  0  0  0  0  0  0  0  0  0  0  0
    0.7328   -0.4364   -0.8024 C   0  0  0  0  0  0  0  0  0  0  0  0
    1.6347   -0.4626   -1.8935 C   0  0  0  0  0  0  0  0  0  0  0  0
    1.2254   -0.7570   -3.1807 C   0  0  0  0  0  0  0  0  0  0  0  0
    2.5109   -0.7217   -4.3179 S   0  0  0  0  0  0  0  0  0  0  0  0
    3.6511   -0.3074   -3.1014 C   0  0  0  0  0  0  0  0  0  0  0  0
    3.0379   -0.2088   -1.8835 C   0  0  0  0  0  0  0  0  0  0  0  0
    3.6654    0.1230   -0.6120 C   0  0  0  0  0  0  0  0  0  0  0  0
    5.0569    0.4108   -0.3820 C   0  0  0  0  0  0  0  0  0  0  0  0
    6.2067    0.4738   -1.1909 C   0  0  0  0  0  0  0  0  0  0  0  0
    7.4275    0.7797   -0.6867 N   0  0  0  0  0  0  0  0  0  0  0  0
    7.5525    1.0314    0.6238 C   0  0  0  0  0  0  0  0  0  0  0  0
    6.5015    0.9991    1.5115 C   0  0  0  0  0  0  0  0  0  0  0  0
    5.2448    0.6813    0.9763 C   0  0  0  0  0  0  0  0  0  0  0  0
    3.7890    0.5766    1.8669 S   0  0  0  0  0  0  0  0  0  0  0  0
    2.8222    0.1650    0.4999 C   0  0  0  0  0  0  0  0  0  0  0  0
    1.4169   -0.0997    0.4281 C   0  0  0  0  0  0  0  0  0  0  0  0
   -3.0243   -0.9559    0.1084 C   0  0  0  0  0  0  0  0  0  0  0  0
   -3.4471   -2.2942    0.2043 C   0  0  0  0  0  0  0  0  0  0  0  0
   -4.7953   -2.6273    0.1272 C   0  0  0  0  0  0  0  0  0  0  0  0
   -5.7455   -1.6261   -0.0494 C   0  0  0  0  0  0  0  0  0  0  0  0
   -5.3638   -0.2806   -0.1524 C   0  0  0  0  0  0  0  0  0  0  0  0
   -6.3378    0.7158   -0.3316 C   0  0  0  0  0  0  0  0  0  0  0  0
   -5.9809    2.0591   -0.4371 C   0  0  0  0  0  0  0  0  0  0  0  0
   -4.6436    2.4244   -0.3652 C   0  0  0  0  0  0  0  0  0  0  0  0
   -3.6633    1.4457   -0.1874 C   0  0  0  0  0  0  0  0  0  0  0  0
   -3.9923    0.0736   -0.0755 C   0  0  0  0  0  0  0  0  0  0  0  0
   -2.4637   -0.3373    3.0271 H   0  0  0  0  0  0  0  0  0  0  0  0
    1.5236    0.4450    3.4522 H   0  0  0  0  0  0  0  0  0  0  0  0
   -1.1305   -0.9554   -1.8655 H   0  0  0  0  0  0  0  0  0  0  0  0
    0.2397   -0.9969   -3.5518 H   0  0  0  0  0  0  0  0  0  0  0  0
    4.6714   -0.1761   -3.4112 H   0  0  0  0  0  0  0  0  0  0  0  0
    6.2196    0.2891   -2.2546 H   0  0  0  0  0  0  0  0  0  0  0  0
    8.5587    1.2692    0.9578 H   0  0  0  0  0  0  0  0  0  0  0  0
    6.6416    1.2081    2.5652 H   0  0  0  0  0  0  0  0  0  0  0  0
   -2.7150   -3.0879    0.3450 H   0  0  0  0  0  0  0  0  0  0  0  0
   -5.1057   -3.6659    0.2056 H   0  0  0  0  0  0  0  0  0  0  0  0
   -6.7955   -1.9063   -0.1069 H   0  0  0  0  0  0  0  0  0  0  0  0
   -7.3915    0.4506   -0.3907 H   0  0  0  0  0  0  0  0  0  0  0  0
   -6.7473    2.8171   -0.5749 H   0  0  0  0  0  0  0  0  0  0  0  0
   -4.3577    3.4699   -0.4460 H   0  0  0  0  0  0  0  0  0  0  0  0
   -2.6262    1.7714   -0.1352 H   0  0  0  0  0  0  0  0  0  0  0  0
  1  2  1  0
  2  3  1  0
  3  4  2  0
  4  5  1  0
  5  6  1  0
  6  7  2  0
  7  8  1  0
  8  9  1  0
  9 10  2  0
 10 11  1  0
 11 12  1  0
 12 13  2  0
 13 14  1  0
 14 15  1  0
 15 16  2  0
 16 17  1  0
 17 18  2  0
 18 19  1  0
 19 20  2  0
 20 21  1  0
 21 22  1  0
 22 23  1  0
  6 24  1  0
 24 25  2  0
 25 26  1  0
 26 27  2  0
 27 28  1  0
 28 29  2  0
 29 30  1  0
 30 31  2  0
 31 32  1  0
 32 33  2  0
  5  1  2  0
 23  8  2  0
 33 24  1  0
 23  4  1  0
 33 28  1  0
 13  9  1  0
 22 14  2  0
 20 15  1  0
  1 34  1  0
  3 35  1  0
  7 36  1  0
 10 37  1  0
 12 38  1  0
 16 39  1  0
 18 40  1  0
 19 41  1  0
 25 42  1  0
 26 43  1  0
 27 44  1  0
 29 45  1  0
 30 46  1  0
 31 47  1  0
 32 48  1  0
M  END
