
     RDKit          3D

 46 53  0  0  0  0  0  0  0  0999 V2000
    3.3751    0.1488    2.4500 C   0  0  0  0  0  0  0  0  0  0  0  0
    2.4319    0.1491    3.4391 O   0  0  0  0  0  0  0  0  0  0  0  0
    1.2045    0.1682    2.8382 C   0  0  0  0  0  0  0  0  0  0  0  0
    1.3561    0.1820    1.4757 C   0  0  0  0  0  0  0  0  0  0  0  0
    2.7638    0.1852    1.2215 C   0  0  0  0  0  0  0  0  0  0  0  0
    3.3561    0.1902   -0.0474 C   0  0  0  0  0  0  0  0  0  0  0  0
    2.3485    0.1824   -1.0590 C   0  0  0  0  0  0  0  0  0  0  0  0
    0.9202    0.1802   -0.8308 C   0  0  0  0  0  0  0  0  0  0  0  0
    0.0202    0.1744   -1.9026 C   0  0  0  0  0  0  0  0  0  0  0  0
   -1.3758    0.1734   -1.7092 C   0  0  0  0  0  0  0  0  0  0  0  0
   -1.9128    0.1779   -0.4034 C   0  0  0  0  0  0  0  0  0  0  0  0
   -1.0122    0.1824    0.6606 C   0  0  0  0  0  0  0  0  0  0  0  0
   -1.6801    0.1859    1.8441 O   0  0  0  0  0  0  0  0  0  0  0  0
   -3.0069    0.1834    1.5603 C   0  0  0  0  0  0  0  0  0  0  0  0
   -4.0075    0.1856    2.5270 C   0  0  0  0  0  0  0  0  0  0  0  0
   -5.3256    0.1826    2.0694 C   0  0  0  0  0  0  0  0  0  0  0  0
   -5.6279    0.1777    0.7008 C   0  0  0  0  0  0  0  0  0  0  0  0
   -6.9636    0.1748    0.2704 C   0  0  0  0  0  0  0  0  0  0  0  0
   -7.2798    0.1697   -1.0888 C   0  0  0  0  0  0  0  0  0  0  0  0
   -6.2651    0.1674   -2.0400 C   0  0  0  0  0  0  0  0  0  0  0  0
   -4.9282    0.1702   -1.6377 C   0  0  0  0  0  0  0  0  0  0  0  0
   -4.5850    0.1754   -0.2686 C   0  0  0  0  0  0  0  0  0  0  0  0
   -3.2268    0.1785    0.1849 C   0  0  0  0  0  0  0  0  0  0  0  0
    0.3713    0.1836    0.4879 C   0  0  0  0  0  0  0  0  0  0  0  0
    4.7832    0.2124   -0.3013 C   0  0  0  0  0  0  0  0  0  0  0  0
    5.6727    1.1599    0.2283 C   0  0  0  0  0  0  0  0  0  0  0  0
    7.0311    1.2512    0.0393 N   0  0  0  0  0  0  0  0  0  0  0  0
    7.6835    0.3549   -0.7547 C   0  0  0  0  0  0  0  0  0  0  0  0
    6.9244   -0.6568   -1.3729 C   0  0  0  0  0  0  0  0  0  0  0  0
    7.3886   -1.6184   -2.1870 N   0  0  0  0  0  0  0  0  0  0  0  0
    6.0775   -2.5382   -2.6201 S   0  0  0  0  0  0  0  0  0  0  0  0
    4.8660   -1.7519   -1.8063 N   0  0  0  0  0  0  0  0  0  0  0  0
    5.4352   -0.7283   -1.1421 C   0  0  0  0  0  0  0  0  0  0  0  0
    4.3987    0.1170    2.7965 H   0  0  0  0  0  0  0  0  0  0  0  0
    0.3588    0.1616    3.5116 H   0  0  0  0  0  0  0  0  0  0  0  0
    2.6871    0.1794   -2.0988 H   0  0  0  0  0  0  0  0  0  0  0  0
    0.3940    0.1684   -2.9261 H   0  0  0  0  0  0  0  0  0  0  0  0
   -2.0199    0.1679   -2.5821 H   0  0  0  0  0  0  0  0  0  0  0  0
   -3.7684    0.1892    3.5839 H   0  0  0  0  0  0  0  0  0  0  0  0
   -6.1268    0.1841    2.8067 H   0  0  0  0  0  0  0  0  0  0  0  0
   -7.7759    0.1763    0.9944 H   0  0  0  0  0  0  0  0  0  0  0  0
   -8.3203    0.1674   -1.4034 H   0  0  0  0  0  0  0  0  0  0  0  0
   -6.5132    0.1633   -3.0984 H   0  0  0  0  0  0  0  0  0  0  0  0
   -4.1668    0.1681   -2.4079 H   0  0  0  0  0  0  0  0  0  0  0  0
    5.2872    1.9534    0.8715 H   0  0  0  0  0  0  0  0  0  0  0  0
    8.7530    0.4666   -0.8734 H   0  0  0  0  0  0  0  0  0  0  0  0
  1  2  1  0
  2  3  1  0
  3  4  2  0
  4  5  1  0
  5  6  1  0
  6  7  2  0
  7  8  1  0
  8  9  2  0
  9 10  1  0
 10 11  2  0
 11 12  1  0
 12 13  1  0
 13 14  1  0
 14 15  2  0
 15 16  1  0
 16 17  2  0
 17 18  1  0
 18 19  2  0
 19 20  1  0
 20 21  2  0
 21 22  1  0
 22 23  2  0
 12 24  2  0
  6 25  1  0
 25 26  2  0
 26 27  1  0
 27 28  2  0
 28 29  1  0
 29 30  2  0
 30 31  1  0
 31 32  1  0
 32 33  2  0
  5  1  2  0
 24  8  1  0
 33 25  1  0
 24  4  1  0
 33 29  1  0
 23 11  1  0
 23 14  1  0
 22 17  1  0
  1 34  1  0
  3 35  1  0
  7 36  1  0
  9 37  1  0
 10 38  1  0
 15 39  1  0
 16 40  1  0
 18 41  1  0
 19 42  1  0
 20 43  1  0
 21 44  1  0
 26 45  1  0
 28 46  1  0
M  END
