
     RDKit          3D

 40 46  0  0  0  0  0  0  0  0999 V2000
   -2.6490   -0.7360   -1.0988 C   0  0  0  0  0  0  0  0  0  0  0  0
   -2.1339   -0.8078   -2.3606 O   0  0  0  0  0  0  0  0  0  0  0  0
   -0.7949   -0.5460   -2.2753 C   0  0  0  0  0  0  0  0  0  0  0  0
   -0.4439   -0.3095   -0.9704 C   0  0  0  0  0  0  0  0  0  0  0  0
   -1.6493   -0.4480   -0.2046 C   0  0  0  0  0  0  0  0  0  0  0  0
   -1.7576   -0.2834    1.1805 C   0  0  0  0  0  0  0  0  0  0  0  0
   -0.4896    0.0529    1.7328 C   0  0  0  0  0  0  0  0  0  0  0  0
    0.7400    0.1967    0.9841 C   0  0  0  0  0  0  0  0  0  0  0  0
    1.9395    0.5264    1.6110 C   0  0  0  0  0  0  0  0  0  0  0  0
    3.1455    0.6817    1.0214 N   0  0  0  0  0  0  0  0  0  0  0  0
    3.1715    0.4993   -0.3253 C   0  0  0  0  0  0  0  0  0  0  0  0
    4.2713    0.5916   -1.2296 C   0  0  0  0  0  0  0  0  0  0  0  0
    5.5789    0.8824   -0.9936 N   0  0  0  0  0  0  0  0  0  0  0  0
    6.3696    0.8891   -2.0850 C   0  0  0  0  0  0  0  0  0  0  0  0
    5.9553    0.6285   -3.3833 C   0  0  0  0  0  0  0  0  0  0  0  0
    4.6175    0.3302   -3.6252 C   0  0  0  0  0  0  0  0  0  0  0  0
    3.7842    0.3192   -2.5062 C   0  0  0  0  0  0  0  0  0  0  0  0
    2.4384    0.0704   -2.3807 N   0  0  0  0  0  0  0  0  0  0  0  0
    2.0349    0.1697   -1.0702 C   0  0  0  0  0  0  0  0  0  0  0  0
    0.8045    0.0122   -0.4281 C   0  0  0  0  0  0  0  0  0  0  0  0
   -2.9800   -0.4413    1.9488 C   0  0  0  0  0  0  0  0  0  0  0  0
   -3.7427   -1.6358    1.9581 C   0  0  0  0  0  0  0  0  0  0  0  0
   -4.9330   -1.8090    2.7046 C   0  0  0  0  0  0  0  0  0  0  0  0
   -5.4768   -0.8046    3.5197 C   0  0  0  0  0  0  0  0  0  0  0  0
   -4.7621    0.4152    3.5658 C   0  0  0  0  0  0  0  0  0  0  0  0
   -5.1107    1.4934    4.2842 N   0  0  0  0  0  0  0  0  0  0  0  0
   -3.9549    2.6471    3.9916 S   0  0  0  0  0  0  0  0  0  0  0  0
   -2.9577    1.8320    2.9474 N   0  0  0  0  0  0  0  0  0  0  0  0
   -3.4892    0.6083    2.7717 C   0  0  0  0  0  0  0  0  0  0  0  0
   -3.7136   -0.9081   -1.0252 H   0  0  0  0  0  0  0  0  0  0  0  0
   -0.2806   -0.5669   -3.2228 H   0  0  0  0  0  0  0  0  0  0  0  0
   -0.4424    0.2158    2.8130 H   0  0  0  0  0  0  0  0  0  0  0  0
    1.9682    0.6870    2.6877 H   0  0  0  0  0  0  0  0  0  0  0  0
    7.4119    1.1238   -1.8815 H   0  0  0  0  0  0  0  0  0  0  0  0
    6.6706    0.6584   -4.1988 H   0  0  0  0  0  0  0  0  0  0  0  0
    4.2526    0.1209   -4.6241 H   0  0  0  0  0  0  0  0  0  0  0  0
    1.8372   -0.1542   -3.1574 H   0  0  0  0  0  0  0  0  0  0  0  0
   -3.3932   -2.4839    1.3655 H   0  0  0  0  0  0  0  0  0  0  0  0
   -5.4484   -2.7685    2.6467 H   0  0  0  0  0  0  0  0  0  0  0  0
   -6.3882   -0.9491    4.0874 H   0  0  0  0  0  0  0  0  0  0  0  0
  1  2  1  0
  2  3  1  0
  3  4  2  0
  4  5  1  0
  5  6  1  0
  6  7  2  0
  7  8  1  0
  8  9  2  0
  9 10  1  0
 10 11  2  0
 11 12  1  0
 12 13  2  0
 13 14  1  0
 14 15  2  0
 15 16  1  0
 16 17  2  0
 17 18  1  0
 18 19  1  0
 19 20  2  0
  6 21  1  0
 21 22  2  0
 22 23  1  0
 23 24  2  0
 24 25  1  0
 25 26  2  0
 26 27  1  0
 27 28  1  0
 28 29  2  0
  5  1  2  0
 20  8  1  0
 29 21  1  0
 20  4  1  0
 29 25  1  0
 19 11  1  0
 17 12  1  0
  1 30  1  0
  3 31  1  0
  7 32  1  0
  9 33  1  0
 14 34  1  0
 15 35  1  0
 16 36  1  0
 18 37  1  0
 22 38  1  0
 23 39  1  0
 24 40  1  0
M  END
