
     RDKit          3D

 48 55  0  0  0  0  0  0  0  0999 V2000
    2.0791    2.2672    0.4499 C   0  0  0  0  0  0  0  0  0  0  0  0
    1.2136    3.3204    0.5634 O   0  0  0  0  0  0  0  0  0  0  0  0
   -0.0538    2.8080    0.5158 C   0  0  0  0  0  0  0  0  0  0  0  0
   -0.0159    1.4367    0.3806 C   0  0  0  0  0  0  0  0  0  0  0  0
    1.3491    1.1297    0.2745 C   0  0  0  0  0  0  0  0  0  0  0  0
    1.7482   -0.2448    0.1390 C   0  0  0  0  0  0  0  0  0  0  0  0
    0.7174   -1.1762    0.3032 C   0  0  0  0  0  0  0  0  0  0  0  0
    1.4873   -2.7092    0.4874 S   0  0  0  0  0  0  0  0  0  0  0  0
    3.0723   -2.0969    0.2592 C   0  0  0  0  0  0  0  0  0  0  0  0
    4.2550   -2.8495    0.3752 C   0  0  0  0  0  0  0  0  0  0  0  0
    5.4736   -2.2501    0.0740 C   0  0  0  0  0  0  0  0  0  0  0  0
    5.5221   -0.9572   -0.4357 C   0  0  0  0  0  0  0  0  0  0  0  0
    6.7508   -0.4134   -0.8441 C   0  0  0  0  0  0  0  0  0  0  0  0
    6.8127    0.8370   -1.4558 C   0  0  0  0  0  0  0  0  0  0  0  0
    5.6428    1.5457   -1.6923 C   0  0  0  0  0  0  0  0  0  0  0  0
    4.4151    1.0249   -1.2752 C   0  0  0  0  0  0  0  0  0  0  0  0
    4.3259   -0.2046   -0.5833 C   0  0  0  0  0  0  0  0  0  0  0  0
    3.0738   -0.7462   -0.1006 C   0  0  0  0  0  0  0  0  0  0  0  0
   -0.6796   -0.8140    0.3622 C   0  0  0  0  0  0  0  0  0  0  0  0
   -1.8061   -1.6799    0.4179 C   0  0  0  0  0  0  0  0  0  0  0  0
   -1.7763   -3.0564    0.3644 C   0  0  0  0  0  0  0  0  0  0  0  0
   -3.3318   -3.7753    0.4684 S   0  0  0  0  0  0  0  0  0  0  0  0
   -4.0989   -2.2523    0.5565 C   0  0  0  0  0  0  0  0  0  0  0  0
   -3.1934   -1.2156    0.4998 C   0  0  0  0  0  0  0  0  0  0  0  0
   -3.5926    0.1322    0.5323 C   0  0  0  0  0  0  0  0  0  0  0  0
   -2.4912    1.0085    0.4774 C   0  0  0  0  0  0  0  0  0  0  0  0
   -1.1177    0.5674    0.3940 C   0  0  0  0  0  0  0  0  0  0  0  0
   -4.9707    0.5920    0.6075 C   0  0  0  0  0  0  0  0  0  0  0  0
   -5.8113    0.5811   -0.5112 C   0  0  0  0  0  0  0  0  0  0  0  0
   -7.1231    1.0378   -0.4032 C   0  0  0  0  0  0  0  0  0  0  0  0
   -7.5585    1.4989    0.8276 C   0  0  0  0  0  0  0  0  0  0  0  0
   -6.7833    1.5318    1.9317 N   0  0  0  0  0  0  0  0  0  0  0  0
   -5.5134    1.0796    1.7954 C   0  0  0  0  0  0  0  0  0  0  0  0
    3.1244    2.5222    0.5432 H   0  0  0  0  0  0  0  0  0  0  0  0
   -0.8396    3.5421    0.6258 H   0  0  0  0  0  0  0  0  0  0  0  0
    4.2216   -3.8883    0.6932 H   0  0  0  0  0  0  0  0  0  0  0  0
    6.3826   -2.8389    0.1806 H   0  0  0  0  0  0  0  0  0  0  0  0
    7.6740   -0.9742   -0.7116 H   0  0  0  0  0  0  0  0  0  0  0  0
    7.7696    1.2389   -1.7783 H   0  0  0  0  0  0  0  0  0  0  0  0
    5.6785    2.4981   -2.2153 H   0  0  0  0  0  0  0  0  0  0  0  0
    3.5200    1.5735   -1.5514 H   0  0  0  0  0  0  0  0  0  0  0  0
   -0.9480   -3.7367    0.2670 H   0  0  0  0  0  0  0  0  0  0  0  0
   -5.1768   -2.2115    0.6390 H   0  0  0  0  0  0  0  0  0  0  0  0
   -2.6995    2.0787    0.4955 H   0  0  0  0  0  0  0  0  0  0  0  0
   -5.4466    0.2185   -1.4697 H   0  0  0  0  0  0  0  0  0  0  0  0
   -7.7879    1.0354   -1.2597 H   0  0  0  0  0  0  0  0  0  0  0  0
   -8.5722    1.8657    0.9620 H   0  0  0  0  0  0  0  0  0  0  0  0
   -4.9214    1.1190    2.7069 H   0  0  0  0  0  0  0  0  0  0  0  0
  1  2  1  0
  2  3  1  0
  3  4  2  0
  4  5  1  0
  5  6  1  0
  6  7  2  0
  7  8  1  0
  8  9  1  0
  9 10  2  0
 10 11  1  0
 11 12  2  0
 12 13  1  0
 13 14  2  0
 14 15  1  0
 15 16  2  0
 16 17  1  0
 17 18  2  0
  7 19  1  0
 19 20  1  0
 20 21  2  0
 21 22  1  0
 22 23  1  0
 23 24  2  0
 24 25  1  0
 25 26  2  0
 26 27  1  0
 25 28  1  0
 28 29  2  0
 29 30  1  0
 30 31  2  0
 31 32  1  0
 32 33  2  0
  5  1  2  0
 18  6  1  0
 27 19  2  0
 33 28  1  0
 27  4  1  0
 18  9  1  0
 24 20  1  0
 17 12  1  0
  1 34  1  0
  3 35  1  0
 10 36  1  0
 11 37  1  0
 13 38  1  0
 14 39  1  0
 15 40  1  0
 16 41  1  0
 21 42  1  0
 23 43  1  0
 26 44  1  0
 29 45  1  0
 30 46  1  0
 31 47  1  0
 33 48  1  0
M  END
