
     RDKit          3D

 40 46  0  0  0  0  0  0  0  0999 V2000
   -0.8614   -2.9952   -0.0349 C   0  0  0  0  0  0  0  0  0  0  0  0
   -1.9244   -3.8599   -0.0297 O   0  0  0  0  0  0  0  0  0  0  0  0
   -3.0670   -3.1038   -0.0418 C   0  0  0  0  0  0  0  0  0  0  0  0
   -2.7602   -1.7603   -0.0547 C   0  0  0  0  0  0  0  0  0  0  0  0
   -1.3561   -1.7272   -0.0500 C   0  0  0  0  0  0  0  0  0  0  0  0
   -0.7475   -0.4422   -0.0612 C   0  0  0  0  0  0  0  0  0  0  0  0
    0.6518   -0.2884   -0.0577 C   0  0  0  0  0  0  0  0  0  0  0  0
    2.0913   -1.2629   -0.0423 S   0  0  0  0  0  0  0  0  0  0  0  0
    3.1148    0.1284   -0.0531 C   0  0  0  0  0  0  0  0  0  0  0  0
    2.3685    1.2954   -0.0680 C   0  0  0  0  0  0  0  0  0  0  0  0
    0.9644    1.0401   -0.0704 C   0  0  0  0  0  0  0  0  0  0  0  0
   -0.4562    2.0621   -0.0863 S   0  0  0  0  0  0  0  0  0  0  0  0
   -1.5364    0.6981   -0.0760 C   0  0  0  0  0  0  0  0  0  0  0  0
   -2.9716    0.6039   -0.0802 C   0  0  0  0  0  0  0  0  0  0  0  0
   -3.9148    1.6638   -0.0947 C   0  0  0  0  0  0  0  0  0  0  0  0
   -3.6367    3.0128   -0.1078 C   0  0  0  0  0  0  0  0  0  0  0  0
   -5.0501    3.9942   -0.1232 S   0  0  0  0  0  0  0  0  0  0  0  0
   -6.0789    2.6284   -0.1127 C   0  0  0  0  0  0  0  0  0  0  0  0
   -5.3567    1.4600   -0.0979 C   0  0  0  0  0  0  0  0  0  0  0  0
   -6.0067    0.2286   -0.0873 C   0  0  0  0  0  0  0  0  0  0  0  0
   -5.1041   -0.8456   -0.0728 C   0  0  0  0  0  0  0  0  0  0  0  0
   -3.6673   -0.6806   -0.0693 C   0  0  0  0  0  0  0  0  0  0  0  0
    4.5971   -0.0159   -0.0462 C   0  0  0  0  0  0  0  0  0  0  0  0
    5.2411   -1.2667   -0.0307 C   0  0  0  0  0  0  0  0  0  0  0  0
    6.6375   -1.3719   -0.0245 C   0  0  0  0  0  0  0  0  0  0  0  0
    7.4252   -0.2268   -0.0338 C   0  0  0  0  0  0  0  0  0  0  0  0
    6.8171    1.0227   -0.0492 C   0  0  0  0  0  0  0  0  0  0  0  0
    5.4208    1.1252   -0.0553 C   0  0  0  0  0  0  0  0  0  0  0  0
    0.1120   -3.4621   -0.0265 H   0  0  0  0  0  0  0  0  0  0  0  0
   -3.9842   -3.6756   -0.0391 H   0  0  0  0  0  0  0  0  0  0  0  0
    2.7815    2.2953   -0.0769 H   0  0  0  0  0  0  0  0  0  0  0  0
   -2.6946    3.5336   -0.1098 H   0  0  0  0  0  0  0  0  0  0  0  0
   -7.1521    2.7622   -0.1180 H   0  0  0  0  0  0  0  0  0  0  0  0
   -7.0800    0.0884   -0.0898 H   0  0  0  0  0  0  0  0  0  0  0  0
   -5.5264   -1.8496   -0.0639 H   0  0  0  0  0  0  0  0  0  0  0  0
    4.6753   -2.1946   -0.0229 H   0  0  0  0  0  0  0  0  0  0  0  0
    7.1050   -2.3534   -0.0125 H   0  0  0  0  0  0  0  0  0  0  0  0
    8.5088   -0.3083   -0.0290 H   0  0  0  0  0  0  0  0  0  0  0  0
    7.4261    1.9233   -0.0565 H   0  0  0  0  0  0  0  0  0  0  0  0
    4.9952    2.1246   -0.0674 H   0  0  0  0  0  0  0  0  0  0  0  0
  1  2  1  0
  2  3  1  0
  3  4  2  0
  4  5  1  0
  5  6  1  0
  6  7  1  0
  7  8  1  0
  8  9  1  0
  9 10  2  0
 10 11  1  0
 11 12  1  0
 12 13  1  0
 13 14  1  0
 14 15  1  0
 15 16  2  0
 16 17  1  0
 17 18  1  0
 18 19  2  0
 19 20  1  0
 20 21  2  0
 21 22  1  0
  9 23  1  0
 23 24  2  0
 24 25  1  0
 25 26  2  0
 26 27  1  0
 27 28  2  0
  5  1  2  0
 13  6  2  0
 22 14  2  0
 28 23  1  0
 22  4  1  0
 11  7  2  0
 19 15  1  0
  1 29  1  0
  3 30  1  0
 10 31  1  0
 16 32  1  0
 18 33  1  0
 20 34  1  0
 21 35  1  0
 24 36  1  0
 25 37  1  0
 26 38  1  0
 27 39  1  0
 28 40  1  0
M  END
