
     RDKit          3D

 42 48  0  0  0  0  0  0  0  0999 V2000
    2.0904   -3.3066   -0.0742 C   0  0  0  0  0  0  0  0  0  0  0  0
    1.2604   -4.3917   -0.0208 O   0  0  0  0  0  0  0  0  0  0  0  0
   -0.0236   -3.9234    0.0174 C   0  0  0  0  0  0  0  0  0  0  0  0
   -0.0168   -2.5523   -0.0112 C   0  0  0  0  0  0  0  0  0  0  0  0
    1.3451   -2.1556   -0.0702 C   0  0  0  0  0  0  0  0  0  0  0  0
    1.7935   -0.8208   -0.1145 C   0  0  0  0  0  0  0  0  0  0  0  0
    3.1409   -0.3936   -0.1736 C   0  0  0  0  0  0  0  0  0  0  0  0
    3.4417    0.9687   -0.2130 C   0  0  0  0  0  0  0  0  0  0  0  0
    2.3379    1.8158   -0.1893 C   0  0  0  0  0  0  0  0  0  0  0  0
    1.0304    1.4277   -0.1325 N   0  0  0  0  0  0  0  0  0  0  0  0
    0.7164    0.1166   -0.0937 C   0  0  0  0  0  0  0  0  0  0  0  0
   -0.6746   -0.3006   -0.0332 C   0  0  0  0  0  0  0  0  0  0  0  0
   -1.7043    0.6556   -0.0146 C   0  0  0  0  0  0  0  0  0  0  0  0
   -3.0795    0.2941    0.0442 C   0  0  0  0  0  0  0  0  0  0  0  0
   -4.1958    1.1788    0.0676 C   0  0  0  0  0  0  0  0  0  0  0  0
   -4.1091    2.5520    0.0359 C   0  0  0  0  0  0  0  0  0  0  0  0
   -5.6613    3.2930    0.0785 S   0  0  0  0  0  0  0  0  0  0  0  0
   -6.4645    1.7759    0.1398 C   0  0  0  0  0  0  0  0  0  0  0  0
   -5.5664    0.7374    0.1278 C   0  0  0  0  0  0  0  0  0  0  0  0
   -5.9724   -0.5925    0.1705 C   0  0  0  0  0  0  0  0  0  0  0  0
   -4.8704   -1.4765    0.1476 C   0  0  0  0  0  0  0  0  0  0  0  0
   -3.4885   -1.0757    0.0878 C   0  0  0  0  0  0  0  0  0  0  0  0
   -2.4809   -2.0428    0.0702 C   0  0  0  0  0  0  0  0  0  0  0  0
   -1.1129   -1.6689    0.0115 C   0  0  0  0  0  0  0  0  0  0  0  0
    4.8178    1.4798   -0.2749 C   0  0  0  0  0  0  0  0  0  0  0  0
    5.8132    0.5856   -0.2935 N   0  0  0  0  0  0  0  0  0  0  0  0
    7.0346    1.1118   -0.3499 C   0  0  0  0  0  0  0  0  0  0  0  0
    7.3275    2.4080   -0.3877 N   0  0  0  0  0  0  0  0  0  0  0  0
    6.2610    3.2012   -0.3643 C   0  0  0  0  0  0  0  0  0  0  0  0
    4.9911    2.8053   -0.3087 N   0  0  0  0  0  0  0  0  0  0  0  0
    3.1462   -3.5356   -0.1088 H   0  0  0  0  0  0  0  0  0  0  0  0
   -0.7896   -4.6845    0.0617 H   0  0  0  0  0  0  0  0  0  0  0  0
    3.9425   -1.1278   -0.1883 H   0  0  0  0  0  0  0  0  0  0  0  0
    2.4640    2.8974   -0.2164 H   0  0  0  0  0  0  0  0  0  0  0  0
   -1.4379    1.7109   -0.0463 H   0  0  0  0  0  0  0  0  0  0  0  0
   -3.2313    3.1806   -0.0098 H   0  0  0  0  0  0  0  0  0  0  0  0
   -7.5443    1.7399    0.1809 H   0  0  0  0  0  0  0  0  0  0  0  0
   -6.9974   -0.9354    0.2158 H   0  0  0  0  0  0  0  0  0  0  0  0
   -5.0981   -2.5440    0.1782 H   0  0  0  0  0  0  0  0  0  0  0  0
   -2.7456   -3.0969    0.1019 H   0  0  0  0  0  0  0  0  0  0  0  0
    7.8687    0.4184   -0.3667 H   0  0  0  0  0  0  0  0  0  0  0  0
    6.4421    4.2705   -0.3932 H   0  0  0  0  0  0  0  0  0  0  0  0
  1  2  1  0
  2  3  1  0
  3  4  2  0
  4  5  1  0
  5  6  1  0
  6  7  2  0
  7  8  1  0
  8  9  2  0
  9 10  1  0
 10 11  2  0
 11 12  1  0
 12 13  2  0
 13 14  1  0
 14 15  1  0
 15 16  2  0
 16 17  1  0
 17 18  1  0
 18 19  2  0
 19 20  1  0
 20 21  2  0
 21 22  1  0
 22 23  1  0
 23 24  2  0
  8 25  1  0
 25 26  2  0
 26 27  1  0
 27 28  2  0
 28 29  1  0
 29 30  2  0
  5  1  2  0
 11  6  1  0
 24 12  1  0
 30 25  1  0
 24  4  1  0
 22 14  2  0
 19 15  1  0
  1 31  1  0
  3 32  1  0
  7 33  1  0
  9 34  1  0
 13 35  1  0
 16 36  1  0
 18 37  1  0
 20 38  1  0
 21 39  1  0
 23 40  1  0
 27 41  1  0
 29 42  1  0
M  END
