
     RDKit          3D

 48 55  0  0  0  0  0  0  0  0999 V2000
    0.0602   -2.3840    2.7168 C   0  0  0  0  0  0  0  0  0  0  0  0
   -1.2742   -2.6862    2.6900 O   0  0  0  0  0  0  0  0  0  0  0  0
   -1.8425   -1.9451    1.6832 C   0  0  0  0  0  0  0  0  0  0  0  0
   -0.9235   -1.0927    1.1006 C   0  0  0  0  0  0  0  0  0  0  0  0
    0.2775   -1.4751    1.7330 C   0  0  0  0  0  0  0  0  0  0  0  0
    1.4878   -0.9548    1.2530 C   0  0  0  0  0  0  0  0  0  0  0  0
    2.8088   -1.1339    1.6436 C   0  0  0  0  0  0  0  0  0  0  0  0
    3.5364   -0.4223    0.6987 C   0  0  0  0  0  0  0  0  0  0  0  0
    2.6823    0.1435   -0.2232 O   0  0  0  0  0  0  0  0  0  0  0  0
    1.3966   -0.1838    0.1204 C   0  0  0  0  0  0  0  0  0  0  0  0
    0.1837    0.1502   -0.5355 C   0  0  0  0  0  0  0  0  0  0  0  0
    0.0973    0.7871   -1.7847 C   0  0  0  0  0  0  0  0  0  0  0  0
    1.1820    1.1812   -2.5389 C   0  0  0  0  0  0  0  0  0  0  0  0
    0.7205    1.8528   -4.0459 S   0  0  0  0  0  0  0  0  0  0  0  0
   -0.9414    1.6158   -3.7077 C   0  0  0  0  0  0  0  0  0  0  0  0
   -1.1487    1.0428   -2.4706 C   0  0  0  0  0  0  0  0  0  0  0  0
   -2.4400    0.7756   -1.9284 C   0  0  0  0  0  0  0  0  0  0  0  0
   -3.6417    0.9969   -2.6373 C   0  0  0  0  0  0  0  0  0  0  0  0
   -4.8664    0.8119   -2.0171 C   0  0  0  0  0  0  0  0  0  0  0  0
   -4.9230    0.5302   -0.6562 C   0  0  0  0  0  0  0  0  0  0  0  0
   -6.1795    0.5025   -0.0267 C   0  0  0  0  0  0  0  0  0  0  0  0
   -6.2883    0.3654    1.3525 C   0  0  0  0  0  0  0  0  0  0  0  0
   -5.1368    0.2907    2.1162 C   0  0  0  0  0  0  0  0  0  0  0  0
   -3.8856    0.2939    1.4899 C   0  0  0  0  0  0  0  0  0  0  0  0
   -3.7234    0.3309    0.0833 C   0  0  0  0  0  0  0  0  0  0  0  0
   -2.4340    0.2796   -0.5857 C   0  0  0  0  0  0  0  0  0  0  0  0
   -1.1340   -0.1919    0.0036 C   0  0  0  0  0  0  0  0  0  0  0  0
    4.9617   -0.1754    0.4882 C   0  0  0  0  0  0  0  0  0  0  0  0
    5.9282   -0.6664    1.3620 C   0  0  0  0  0  0  0  0  0  0  0  0
    7.2705   -0.3954    1.1020 C   0  0  0  0  0  0  0  0  0  0  0  0
    7.6097    0.3541   -0.0172 C   0  0  0  0  0  0  0  0  0  0  0  0
    6.5880    0.8043   -0.8347 C   0  0  0  0  0  0  0  0  0  0  0  0
    5.2804    0.5570   -0.6074 N   0  0  0  0  0  0  0  0  0  0  0  0
    0.6596   -2.9286    3.4315 H   0  0  0  0  0  0  0  0  0  0  0  0
   -2.8879   -2.1636    1.5143 H   0  0  0  0  0  0  0  0  0  0  0  0
    3.2036   -1.7009    2.4729 H   0  0  0  0  0  0  0  0  0  0  0  0
    2.2378    1.1162   -2.3153 H   0  0  0  0  0  0  0  0  0  0  0  0
   -1.6605    1.9327   -4.4483 H   0  0  0  0  0  0  0  0  0  0  0  0
   -3.6379    1.3093   -3.6771 H   0  0  0  0  0  0  0  0  0  0  0  0
   -5.7750    0.9748   -2.5926 H   0  0  0  0  0  0  0  0  0  0  0  0
   -7.0915    0.6231   -0.6086 H   0  0  0  0  0  0  0  0  0  0  0  0
   -7.2650    0.3621    1.8280 H   0  0  0  0  0  0  0  0  0  0  0  0
   -5.2002    0.2434    3.2003 H   0  0  0  0  0  0  0  0  0  0  0  0
   -3.0154    0.3117    2.1423 H   0  0  0  0  0  0  0  0  0  0  0  0
    5.6573   -1.2500    2.2343 H   0  0  0  0  0  0  0  0  0  0  0  0
    8.0440   -0.7666    1.7684 H   0  0  0  0  0  0  0  0  0  0  0  0
    8.6442    0.5827   -0.2478 H   0  0  0  0  0  0  0  0  0  0  0  0
    6.7982    1.3944   -1.7223 H   0  0  0  0  0  0  0  0  0  0  0  0
  1  2  1  0
  2  3  1  0
  3  4  2  0
  4  5  1  0
  5  6  1  0
  6  7  1  0
  7  8  2  0
  8  9  1  0
  9 10  1  0
 10 11  1  0
 11 12  1  0
 12 13  2  0
 13 14  1  0
 14 15  1  0
 15 16  2  0
 16 17  1  0
 17 18  2  0
 18 19  1  0
 19 20  2  0
 20 21  1  0
 21 22  2  0
 22 23  1  0
 23 24  2  0
 24 25  1  0
 25 26  2  0
 26 27  1  0
  8 28  1  0
 28 29  2  0
 29 30  1  0
 30 31  2  0
 31 32  1  0
 32 33  2  0
  5  1  2  0
 10  6  2  0
 27 11  2  0
 33 28  1  0
 27  4  1  0
 16 12  1  0
 26 17  1  0
 25 20  1  0
  1 34  1  0
  3 35  1  0
  7 36  1  0
 13 37  1  0
 15 38  1  0
 18 39  1  0
 19 40  1  0
 21 41  1  0
 22 42  1  0
 23 43  1  0
 24 44  1  0
 29 45  1  0
 30 46  1  0
 31 47  1  0
 32 48  1  0
M  END
