
     RDKit          3D

 48 55  0  0  0  0  0  0  0  0999 V2000
    3.5225    2.5771    2.4375 C   0  0  0  0  0  0  0  0  0  0  0  0
    2.3264    3.1132    2.8063 O   0  0  0  0  0  0  0  0  0  0  0  0
    1.3580    2.4433    2.1193 C   0  0  0  0  0  0  0  0  0  0  0  0
    1.9197    1.4803    1.3139 C   0  0  0  0  0  0  0  0  0  0  0  0
    3.3270    1.5708    1.5221 C   0  0  0  0  0  0  0  0  0  0  0  0
    4.3146    0.7717    0.9196 C   0  0  0  0  0  0  0  0  0  0  0  0
    5.7301    0.9469    1.1857 C   0  0  0  0  0  0  0  0  0  0  0  0
    6.7255    0.1340    0.6365 C   0  0  0  0  0  0  0  0  0  0  0  0
    6.1758   -0.8847   -0.1289 C   0  0  0  0  0  0  0  0  0  0  0  0
    6.9902   -1.8418   -0.6851 C   0  0  0  0  0  0  0  0  0  0  0  0
    6.0761   -3.0495   -1.4758 S   0  0  0  0  0  0  0  0  0  0  0  0
    4.5928   -2.2863   -1.0580 C   0  0  0  0  0  0  0  0  0  0  0  0
    4.7608   -1.0810   -0.4102 C   0  0  0  0  0  0  0  0  0  0  0  0
    3.6911   -0.2157    0.0401 C   0  0  0  0  0  0  0  0  0  0  0  0
    2.2104   -0.2403   -0.2606 C   0  0  0  0  0  0  0  0  0  0  0  0
    1.6394   -1.0381   -1.2684 C   0  0  0  0  0  0  0  0  0  0  0  0
    0.2641   -1.0972   -1.5166 C   0  0  0  0  0  0  0  0  0  0  0  0
   -0.6317   -0.3265   -0.7767 C   0  0  0  0  0  0  0  0  0  0  0  0
   -2.0114   -0.4067   -1.0283 C   0  0  0  0  0  0  0  0  0  0  0  0
   -2.9160    0.3717   -0.3081 C   0  0  0  0  0  0  0  0  0  0  0  0
   -2.3648    1.2181    0.6388 C   0  0  0  0  0  0  0  0  0  0  0  0
   -1.0387    1.3196    0.8998 N   0  0  0  0  0  0  0  0  0  0  0  0
   -0.1586    0.5545    0.2093 C   0  0  0  0  0  0  0  0  0  0  0  0
    1.2553    0.5975    0.4260 C   0  0  0  0  0  0  0  0  0  0  0  0
   -4.3487    0.3175   -0.5495 C   0  0  0  0  0  0  0  0  0  0  0  0
   -5.0948    1.3936   -1.1004 C   0  0  0  0  0  0  0  0  0  0  0  0
   -6.5046    1.3547   -1.3540 C   0  0  0  0  0  0  0  0  0  0  0  0
   -7.3224    0.2387   -1.0820 C   0  0  0  0  0  0  0  0  0  0  0  0
   -6.5938   -0.8162   -0.5340 C   0  0  0  0  0  0  0  0  0  0  0  0
   -7.1807   -2.0054   -0.1787 C   0  0  0  0  0  0  0  0  0  0  0  0
   -6.0284   -3.0952    0.4819 S   0  0  0  0  0  0  0  0  0  0  0  0
   -4.7427   -1.9679    0.2942 C   0  0  0  0  0  0  0  0  0  0  0  0
   -5.1730   -0.7905   -0.2746 C   0  0  0  0  0  0  0  0  0  0  0  0
    4.3843    3.0191    2.9162 H   0  0  0  0  0  0  0  0  0  0  0  0
    0.3493    2.7778    2.3168 H   0  0  0  0  0  0  0  0  0  0  0  0
    6.0540    1.7491    1.8474 H   0  0  0  0  0  0  0  0  0  0  0  0
    7.7783    0.2719    0.8441 H   0  0  0  0  0  0  0  0  0  0  0  0
    8.0684   -1.9193   -0.6478 H   0  0  0  0  0  0  0  0  0  0  0  0
    3.6957   -2.8244   -1.3114 H   0  0  0  0  0  0  0  0  0  0  0  0
    2.2606   -1.6084   -1.9486 H   0  0  0  0  0  0  0  0  0  0  0  0
   -0.0934   -1.7484   -2.3127 H   0  0  0  0  0  0  0  0  0  0  0  0
   -2.3852   -1.0789   -1.7992 H   0  0  0  0  0  0  0  0  0  0  0  0
   -2.9926    1.8647    1.2476 H   0  0  0  0  0  0  0  0  0  0  0  0
   -4.5669    2.3132   -1.3615 H   0  0  0  0  0  0  0  0  0  0  0  0
   -6.9696    2.2425   -1.7848 H   0  0  0  0  0  0  0  0  0  0  0  0
   -8.3861    0.2294   -1.2799 H   0  0  0  0  0  0  0  0  0  0  0  0
   -8.2171   -2.3027   -0.2611 H   0  0  0  0  0  0  0  0  0  0  0  0
   -3.7493   -2.2461    0.6185 H   0  0  0  0  0  0  0  0  0  0  0  0
  1  2  1  0
  2  3  1  0
  3  4  2  0
  4  5  1  0
  5  6  1  0
  6  7  1  0
  7  8  2  0
  8  9  1  0
  9 10  2  0
 10 11  1  0
 11 12  1  0
 12 13  2  0
 13 14  1  0
 14 15  1  0
 15 16  2  0
 16 17  1  0
 17 18  2  0
 18 19  1  0
 19 20  2  0
 20 21  1  0
 21 22  2  0
 22 23  1  0
 23 24  2  0
 20 25  1  0
 25 26  2  0
 26 27  1  0
 27 28  2  0
 28 29  1  0
 29 30  2  0
 30 31  1  0
 31 32  1  0
 32 33  2  0
  5  1  2  0
 14  6  2  0
 24 15  1  0
 33 25  1  0
 24  4  1  0
 33 29  1  0
 13  9  1  0
 23 18  1  0
  1 34  1  0
  3 35  1  0
  7 36  1  0
  8 37  1  0
 10 38  1  0
 12 39  1  0
 16 40  1  0
 17 41  1  0
 19 42  1  0
 21 43  1  0
 26 44  1  0
 27 45  1  0
 28 46  1  0
 30 47  1  0
 32 48  1  0
M  END
