
     RDKit          3D

 44 50  0  0  0  0  0  0  0  0999 V2000
    6.5353   -1.1628    0.0609 C   0  0  0  0  0  0  0  0  0  0  0  0
    5.7392   -2.2175   -0.3198 O   0  0  0  0  0  0  0  0  0  0  0  0
    4.4341   -1.7855   -0.2850 C   0  0  0  0  0  0  0  0  0  0  0  0
    4.4436   -0.4863    0.1119 C   0  0  0  0  0  0  0  0  0  0  0  0
    5.7609   -0.0626    0.3389 C   0  0  0  0  0  0  0  0  0  0  0  0
    6.2200    1.1815    0.7524 C   0  0  0  0  0  0  0  0  0  0  0  0
    5.1672    2.1027    0.9552 C   0  0  0  0  0  0  0  0  0  0  0  0
    3.8140    1.7226    0.7388 C   0  0  0  0  0  0  0  0  0  0  0  0
    2.6354    2.4254    0.8656 N   0  0  0  0  0  0  0  0  0  0  0  0
    1.5478    1.6319    0.5429 C   0  0  0  0  0  0  0  0  0  0  0  0
    0.1857    1.9385    0.5353 C   0  0  0  0  0  0  0  0  0  0  0  0
   -0.7357    0.9394    0.1622 C   0  0  0  0  0  0  0  0  0  0  0  0
   -2.0938    1.2580    0.1585 C   0  0  0  0  0  0  0  0  0  0  0  0
   -3.1230    0.3515   -0.1943 C   0  0  0  0  0  0  0  0  0  0  0  0
   -4.5282    0.8783   -0.1380 C   0  0  0  0  0  0  0  0  0  0  0  0
   -4.6848    2.1567    0.2402 N   0  0  0  0  0  0  0  0  0  0  0  0
   -5.9387    2.6019    0.2828 C   0  0  0  0  0  0  0  0  0  0  0  0
   -7.0259    1.9015   -0.0114 N   0  0  0  0  0  0  0  0  0  0  0  0
   -6.7635    0.6520   -0.3729 C   0  0  0  0  0  0  0  0  0  0  0  0
   -5.5571    0.0930   -0.4537 N   0  0  0  0  0  0  0  0  0  0  0  0
   -2.7245   -0.9776   -0.5701 C   0  0  0  0  0  0  0  0  0  0  0  0
   -3.6322   -2.0078   -0.9516 C   0  0  0  0  0  0  0  0  0  0  0  0
   -3.2359   -3.2958   -1.3150 C   0  0  0  0  0  0  0  0  0  0  0  0
   -1.8984   -3.6166   -1.3135 C   0  0  0  0  0  0  0  0  0  0  0  0
   -0.9699   -2.6456   -0.9484 C   0  0  0  0  0  0  0  0  0  0  0  0
   -1.3306   -1.3230   -0.5719 C   0  0  0  0  0  0  0  0  0  0  0  0
   -0.3282   -0.3563   -0.2027 C   0  0  0  0  0  0  0  0  0  0  0  0
    1.0752   -0.6136   -0.1769 C   0  0  0  0  0  0  0  0  0  0  0  0
    2.0180    0.3687    0.1926 C   0  0  0  0  0  0  0  0  0  0  0  0
    3.4082    0.4631    0.3246 C   0  0  0  0  0  0  0  0  0  0  0  0
    7.5958   -1.3705    0.0763 H   0  0  0  0  0  0  0  0  0  0  0  0
    3.6908   -2.5165   -0.5631 H   0  0  0  0  0  0  0  0  0  0  0  0
    7.2591    1.4391    0.9081 H   0  0  0  0  0  0  0  0  0  0  0  0
    5.4014    3.1139    1.2809 H   0  0  0  0  0  0  0  0  0  0  0  0
    2.5716    3.3903    1.1551 H   0  0  0  0  0  0  0  0  0  0  0  0
   -0.1509    2.9336    0.8137 H   0  0  0  0  0  0  0  0  0  0  0  0
   -2.3696    2.2736    0.4478 H   0  0  0  0  0  0  0  0  0  0  0  0
   -6.0834    3.6330    0.5864 H   0  0  0  0  0  0  0  0  0  0  0  0
   -7.6114    0.0249   -0.6270 H   0  0  0  0  0  0  0  0  0  0  0  0
   -4.7024   -1.8403   -0.9800 H   0  0  0  0  0  0  0  0  0  0  0  0
   -3.9804   -4.0356   -1.5958 H   0  0  0  0  0  0  0  0  0  0  0  0
   -1.5691   -4.6133   -1.5930 H   0  0  0  0  0  0  0  0  0  0  0  0
    0.0690   -2.9610   -0.9675 H   0  0  0  0  0  0  0  0  0  0  0  0
    1.4654   -1.5865   -0.4447 H   0  0  0  0  0  0  0  0  0  0  0  0
  1  2  1  0
  2  3  1  0
  3  4  2  0
  4  5  1  0
  5  6  1  0
  6  7  2  0
  7  8  1  0
  8  9  1  0
  9 10  1  0
 10 11  2  0
 11 12  1  0
 12 13  2  0
 13 14  1  0
 14 15  1  0
 15 16  2  0
 16 17  1  0
 17 18  2  0
 18 19  1  0
 19 20  2  0
 14 21  2  0
 21 22  1  0
 22 23  2  0
 23 24  1  0
 24 25  2  0
 25 26  1  0
 26 27  2  0
 27 28  1  0
 28 29  2  0
 29 30  1  0
  5  1  2  0
 30  8  2  0
 30  4  1  0
 29 10  1  0
 27 12  1  0
 20 15  1  0
 26 21  1  0
  1 31  1  0
  3 32  1  0
  6 33  1  0
  7 34  1  0
  9 35  1  0
 11 36  1  0
 13 37  1  0
 17 38  1  0
 19 39  1  0
 22 40  1  0
 23 41  1  0
 24 42  1  0
 25 43  1  0
 28 44  1  0
M  END
