
     RDKit          3D

 46 53  0  0  0  0  0  0  0  0999 V2000
   -6.8051   -1.7829   -0.6884 C   0  0  0  0  0  0  0  0  0  0  0  0
   -5.9458   -2.6717   -1.2605 O   0  0  0  0  0  0  0  0  0  0  0  0
   -4.6777   -2.1908   -1.0783 C   0  0  0  0  0  0  0  0  0  0  0  0
   -4.6996   -1.0144   -0.3663 C   0  0  0  0  0  0  0  0  0  0  0  0
   -6.0899   -0.7476   -0.1515 C   0  0  0  0  0  0  0  0  0  0  0  0
   -6.6357    0.3585    0.4655 C   0  0  0  0  0  0  0  0  0  0  0  0
   -5.6051    1.2385    0.8442 C   0  0  0  0  0  0  0  0  0  0  0  0
   -4.1901    1.0133    0.6403 C   0  0  0  0  0  0  0  0  0  0  0  0
   -3.3155    1.9990    1.0715 C   0  0  0  0  0  0  0  0  0  0  0  0
   -1.9333    1.8832    0.8908 C   0  0  0  0  0  0  0  0  0  0  0  0
   -1.3143    0.7742    0.2782 C   0  0  0  0  0  0  0  0  0  0  0  0
   -2.1676   -0.3062   -0.0724 C   0  0  0  0  0  0  0  0  0  0  0  0
   -1.5422   -1.5020   -0.4679 C   0  0  0  0  0  0  0  0  0  0  0  0
   -0.1558   -1.6478   -0.5543 C   0  0  0  0  0  0  0  0  0  0  0  0
    0.7058   -0.5880   -0.3082 C   0  0  0  0  0  0  0  0  0  0  0  0
    2.1119   -0.8444   -0.4422 C   0  0  0  0  0  0  0  0  0  0  0  0
    3.1431    0.1057   -0.2759 C   0  0  0  0  0  0  0  0  0  0  0  0
    4.5500   -0.2022   -0.4446 C   0  0  0  0  0  0  0  0  0  0  0  0
    5.3686    0.3335   -1.4496 C   0  0  0  0  0  0  0  0  0  0  0  0
    6.7019    0.0901   -1.6764 N   0  0  0  0  0  0  0  0  0  0  0  0
    7.3957   -0.7747   -0.8812 C   0  0  0  0  0  0  0  0  0  0  0  0
    6.7047   -1.4079    0.1700 C   0  0  0  0  0  0  0  0  0  0  0  0
    7.2152   -2.2878    1.0466 N   0  0  0  0  0  0  0  0  0  0  0  0
    5.9727   -2.7100    2.0627 S   0  0  0  0  0  0  0  0  0  0  0  0
    4.7357   -1.8037    1.4321 N   0  0  0  0  0  0  0  0  0  0  0  0
    5.2423   -1.1156    0.3921 C   0  0  0  0  0  0  0  0  0  0  0  0
    2.6107    1.3713    0.0016 C   0  0  0  0  0  0  0  0  0  0  0  0
    3.3964    2.4879    0.1883 C   0  0  0  0  0  0  0  0  0  0  0  0
    2.4575    3.9019    0.3887 S   0  0  0  0  0  0  0  0  0  0  0  0
    0.9933    3.0188    0.2527 C   0  0  0  0  0  0  0  0  0  0  0  0
    1.1883    1.6586    0.1477 C   0  0  0  0  0  0  0  0  0  0  0  0
    0.1308    0.6736    0.0604 C   0  0  0  0  0  0  0  0  0  0  0  0
   -3.6160   -0.1614    0.0362 C   0  0  0  0  0  0  0  0  0  0  0  0
   -7.8547   -2.0274   -0.7688 H   0  0  0  0  0  0  0  0  0  0  0  0
   -3.9189   -2.8052   -1.5356 H   0  0  0  0  0  0  0  0  0  0  0  0
   -7.6856    0.5566    0.6235 H   0  0  0  0  0  0  0  0  0  0  0  0
   -5.9153    2.1677    1.3286 H   0  0  0  0  0  0  0  0  0  0  0  0
   -3.6899    2.8943    1.5661 H   0  0  0  0  0  0  0  0  0  0  0  0
   -1.3396    2.6809    1.3225 H   0  0  0  0  0  0  0  0  0  0  0  0
   -2.1200   -2.3966   -0.6603 H   0  0  0  0  0  0  0  0  0  0  0  0
    0.2332   -2.6265   -0.8332 H   0  0  0  0  0  0  0  0  0  0  0  0
    2.4199   -1.8624   -0.6980 H   0  0  0  0  0  0  0  0  0  0  0  0
    4.9399    1.0332   -2.1697 H   0  0  0  0  0  0  0  0  0  0  0  0
    8.4431   -0.9349   -1.0990 H   0  0  0  0  0  0  0  0  0  0  0  0
    4.4740    2.5764    0.1944 H   0  0  0  0  0  0  0  0  0  0  0  0
    0.0831    3.5946    0.2441 H   0  0  0  0  0  0  0  0  0  0  0  0
  1  2  1  0
  2  3  1  0
  3  4  2  0
  4  5  1  0
  5  6  1  0
  6  7  2  0
  7  8  1  0
  8  9  2  0
  9 10  1  0
 10 11  2  0
 11 12  1  0
 12 13  1  0
 13 14  2  0
 14 15  1  0
 15 16  1  0
 16 17  2  0
 17 18  1  0
 18 19  2  0
 19 20  1  0
 20 21  2  0
 21 22  1  0
 22 23  2  0
 23 24  1  0
 24 25  1  0
 25 26  2  0
 17 27  1  0
 27 28  2  0
 28 29  1  0
 29 30  1  0
 30 31  2  0
 31 32  1  0
 12 33  2  0
  5  1  2  0
 33  8  1  0
 33  4  1  0
 32 11  1  0
 32 15  2  0
 26 18  1  0
 31 27  1  0
 26 22  1  0
  1 34  1  0
  3 35  1  0
  6 36  1  0
  7 37  1  0
  9 38  1  0
 10 39  1  0
 13 40  1  0
 14 41  1  0
 16 42  1  0
 19 43  1  0
 21 44  1  0
 28 45  1  0
 30 46  1  0
M  END
