
     RDKit          3D

 42 48  0  0  0  0  0  0  0  0999 V2000
   -5.9044    1.6271   -0.9289 C   0  0  0  0  0  0  0  0  0  0  0  0
   -4.9727    2.6229   -0.9512 O   0  0  0  0  0  0  0  0  0  0  0  0
   -3.7507    2.0460   -0.7375 C   0  0  0  0  0  0  0  0  0  0  0  0
   -3.8871    0.6995   -0.5067 C   0  0  0  0  0  0  0  0  0  0  0  0
   -5.2776    0.4308   -0.7099 C   0  0  0  0  0  0  0  0  0  0  0  0
   -5.8840   -0.8093   -0.7350 C   0  0  0  0  0  0  0  0  0  0  0  0
   -4.9023   -1.8118   -0.6078 C   0  0  0  0  0  0  0  0  0  0  0  0
   -3.4838   -1.5748   -0.4189 C   0  0  0  0  0  0  0  0  0  0  0  0
   -2.6117   -2.6541   -0.3929 C   0  0  0  0  0  0  0  0  0  0  0  0
   -1.2635   -2.5914   -0.2589 N   0  0  0  0  0  0  0  0  0  0  0  0
   -0.6790   -1.4096   -0.0527 C   0  0  0  0  0  0  0  0  0  0  0  0
    0.7349   -1.4528    0.1071 C   0  0  0  0  0  0  0  0  0  0  0  0
    1.5855   -0.3595    0.4036 C   0  0  0  0  0  0  0  0  0  0  0  0
    3.0162   -0.4489    0.5847 C   0  0  0  0  0  0  0  0  0  0  0  0
    3.6294   -1.1729    1.6411 C   0  0  0  0  0  0  0  0  0  0  0  0
    5.0450   -1.2693    1.8418 C   0  0  0  0  0  0  0  0  0  0  0  0
    6.0016   -0.6581    1.0054 C   0  0  0  0  0  0  0  0  0  0  0  0
    5.4022    0.0430   -0.0402 C   0  0  0  0  0  0  0  0  0  0  0  0
    6.1352    0.7104   -0.9900 C   0  0  0  0  0  0  0  0  0  0  0  0
    5.1143    1.4585   -2.1519 S   0  0  0  0  0  0  0  0  0  0  0  0
    3.6887    0.8821   -1.3811 C   0  0  0  0  0  0  0  0  0  0  0  0
    3.9774    0.1489   -0.2524 C   0  0  0  0  0  0  0  0  0  0  0  0
    0.8165    0.7832    0.5913 C   0  0  0  0  0  0  0  0  0  0  0  0
    1.2474    2.0084    1.0306 C   0  0  0  0  0  0  0  0  0  0  0  0
    0.1747    2.8303    1.2070 O   0  0  0  0  0  0  0  0  0  0  0  0
   -0.9442    2.1188    0.8765 C   0  0  0  0  0  0  0  0  0  0  0  0
   -0.6021    0.8704    0.4206 C   0  0  0  0  0  0  0  0  0  0  0  0
   -1.4521   -0.2037    0.0159 C   0  0  0  0  0  0  0  0  0  0  0  0
   -2.8770   -0.2850   -0.2759 C   0  0  0  0  0  0  0  0  0  0  0  0
   -6.9227    1.9349   -1.1203 H   0  0  0  0  0  0  0  0  0  0  0  0
   -2.9232    2.7324   -0.8256 H   0  0  0  0  0  0  0  0  0  0  0  0
   -6.9332   -1.0098   -0.8965 H   0  0  0  0  0  0  0  0  0  0  0  0
   -5.2474   -2.8465   -0.6759 H   0  0  0  0  0  0  0  0  0  0  0  0
   -2.9819   -3.6713   -0.5110 H   0  0  0  0  0  0  0  0  0  0  0  0
    1.2025   -2.4349   -0.0043 H   0  0  0  0  0  0  0  0  0  0  0  0
    2.9873   -1.6873    2.3589 H   0  0  0  0  0  0  0  0  0  0  0  0
    5.4002   -1.8509    2.6935 H   0  0  0  0  0  0  0  0  0  0  0  0
    7.0670   -0.7439    1.1728 H   0  0  0  0  0  0  0  0  0  0  0  0
    7.2090    0.8026   -1.0782 H   0  0  0  0  0  0  0  0  0  0  0  0
    2.7258    1.1221   -1.8107 H   0  0  0  0  0  0  0  0  0  0  0  0
    2.2075    2.4310    1.2943 H   0  0  0  0  0  0  0  0  0  0  0  0
   -1.8675    2.6425    1.0695 H   0  0  0  0  0  0  0  0  0  0  0  0
  1  2  1  0
  2  3  1  0
  3  4  2  0
  4  5  1  0
  5  6  1  0
  6  7  2  0
  7  8  1  0
  8  9  2  0
  9 10  1  0
 10 11  2  0
 11 12  1  0
 12 13  2  0
 13 14  1  0
 14 15  2  0
 15 16  1  0
 16 17  2  0
 17 18  1  0
 18 19  2  0
 19 20  1  0
 20 21  1  0
 21 22  2  0
 13 23  1  0
 23 24  2  0
 24 25  1  0
 25 26  1  0
 26 27  2  0
 27 28  1  0
 28 29  2  0
  5  1  2  0
 29  8  1  0
 29  4  1  0
 28 11  1  0
 22 14  1  0
 27 23  1  0
 22 18  1  0
  1 30  1  0
  3 31  1  0
  6 32  1  0
  7 33  1  0
  9 34  1  0
 12 35  1  0
 15 36  1  0
 16 37  1  0
 17 38  1  0
 19 39  1  0
 21 40  1  0
 24 41  1  0
 26 42  1  0
M  END
