
     RDKit          3D

 44 51  0  0  0  0  0  0  0  0999 V2000
   -6.8184   -1.0590   -1.0857 C   0  0  0  0  0  0  0  0  0  0  0  0
   -5.9285   -1.7909   -1.8126 O   0  0  0  0  0  0  0  0  0  0  0  0
   -4.6707   -1.4111   -1.4282 C   0  0  0  0  0  0  0  0  0  0  0  0
   -4.7340   -0.4392   -0.4582 C   0  0  0  0  0  0  0  0  0  0  0  0
   -6.1342   -0.2220   -0.2474 C   0  0  0  0  0  0  0  0  0  0  0  0
   -6.7117    0.6667    0.6374 C   0  0  0  0  0  0  0  0  0  0  0  0
   -5.7044    1.3602    1.3340 C   0  0  0  0  0  0  0  0  0  0  0  0
   -4.2797    1.1703    1.1504 C   0  0  0  0  0  0  0  0  0  0  0  0
   -3.3987    1.9254    1.9080 C   0  0  0  0  0  0  0  0  0  0  0  0
   -2.0499    1.8591    1.8475 N   0  0  0  0  0  0  0  0  0  0  0  0
   -1.4869    0.9996    0.9919 C   0  0  0  0  0  0  0  0  0  0  0  0
   -0.0959    0.9677    0.9659 C   0  0  0  0  0  0  0  0  0  0  0  0
    0.6391    0.1212    0.1239 C   0  0  0  0  0  0  0  0  0  0  0  0
    2.0643    0.1254    0.1341 C   0  0  0  0  0  0  0  0  0  0  0  0
    2.9180   -0.6836   -0.6700 C   0  0  0  0  0  0  0  0  0  0  0  0
    4.4051   -0.6018   -0.5821 C   0  0  0  0  0  0  0  0  0  0  0  0
    5.4307   -1.5997   -1.5734 S   0  0  0  0  0  0  0  0  0  0  0  0
    6.8832   -0.9751   -0.9441 C   0  0  0  0  0  0  0  0  0  0  0  0
    6.6367   -0.0243    0.0036 C   0  0  0  0  0  0  0  0  0  0  0  0
    7.6377    0.6272    0.6580 N   0  0  0  0  0  0  0  0  0  0  0  0
    7.1333    1.5204    1.5472 C   0  0  0  0  0  0  0  0  0  0  0  0
    5.7726    1.7469    1.7674 C   0  0  0  0  0  0  0  0  0  0  0  0
    4.7573    1.1086    1.1261 N   0  0  0  0  0  0  0  0  0  0  0  0
    5.2212    0.1966    0.2180 C   0  0  0  0  0  0  0  0  0  0  0  0
    2.2048   -1.5630   -1.5511 C   0  0  0  0  0  0  0  0  0  0  0  0
    2.7077   -2.4473   -2.4321 N   0  0  0  0  0  0  0  0  0  0  0  0
    1.4532   -3.2013   -3.1901 S   0  0  0  0  0  0  0  0  0  0  0  0
    0.1715   -2.4620   -2.4573 N   0  0  0  0  0  0  0  0  0  0  0  0
    0.6806   -1.5815   -1.5760 C   0  0  0  0  0  0  0  0  0  0  0  0
   -0.0907   -0.7250   -0.7241 C   0  0  0  0  0  0  0  0  0  0  0  0
   -1.5041   -0.7062   -0.7112 C   0  0  0  0  0  0  0  0  0  0  0  0
   -2.2326    0.1529    0.1434 C   0  0  0  0  0  0  0  0  0  0  0  0
   -3.6777    0.2455    0.2297 C   0  0  0  0  0  0  0  0  0  0  0  0
   -7.8618   -1.2561   -1.2869 H   0  0  0  0  0  0  0  0  0  0  0  0
   -3.8885   -1.9380   -1.9508 H   0  0  0  0  0  0  0  0  0  0  0  0
   -7.7693    0.8251    0.7911 H   0  0  0  0  0  0  0  0  0  0  0  0
   -6.0367    2.0977    2.0688 H   0  0  0  0  0  0  0  0  0  0  0  0
   -3.7625    2.6522    2.6319 H   0  0  0  0  0  0  0  0  0  0  0  0
    0.4317    1.6418    1.6411 H   0  0  0  0  0  0  0  0  0  0  0  0
    2.5235    0.8239    0.8335 H   0  0  0  0  0  0  0  0  0  0  0  0
    7.8424   -1.3289   -1.2930 H   0  0  0  0  0  0  0  0  0  0  0  0
    7.8781    2.0786    2.1074 H   0  0  0  0  0  0  0  0  0  0  0  0
    5.4565    2.4835    2.5011 H   0  0  0  0  0  0  0  0  0  0  0  0
   -2.0124   -1.3809   -1.3870 H   0  0  0  0  0  0  0  0  0  0  0  0
  1  2  1  0
  2  3  1  0
  3  4  2  0
  4  5  1  0
  5  6  1  0
  6  7  2  0
  7  8  1  0
  8  9  2  0
  9 10  1  0
 10 11  2  0
 11 12  1  0
 12 13  2  0
 13 14  1  0
 14 15  2  0
 15 16  1  0
 16 17  1  0
 17 18  1  0
 18 19  2  0
 19 20  1  0
 20 21  2  0
 21 22  1  0
 22 23  2  0
 23 24  1  0
 15 25  1  0
 25 26  2  0
 26 27  1  0
 27 28  1  0
 28 29  2  0
 29 30  1  0
 30 31  2  0
 31 32  1  0
 32 33  2  0
  5  1  2  0
 33  8  1  0
 33  4  1  0
 32 11  1  0
 30 13  1  0
 24 16  2  0
 29 25  1  0
 24 19  1  0
  1 34  1  0
  3 35  1  0
  6 36  1  0
  7 37  1  0
  9 38  1  0
 12 39  1  0
 14 40  1  0
 18 41  1  0
 21 42  1  0
 22 43  1  0
 31 44  1  0
M  END
