
     RDKit          3D

 47 53  0  0  0  0  0  0  0  0999 V2000
   -6.1412   -2.1928   -2.2664 Si  0  0  0  0  0  4  0  0  0  0  0  0
   -7.0544   -1.3068   -0.9014 C   0  0  0  0  0  0  0  0  0  0  0  0
   -6.2040   -0.6109   -0.1235 C   0  0  0  0  0  0  0  0  0  0  0  0
   -6.6212    0.1752    1.0126 C   0  0  0  0  0  0  0  0  0  0  0  0
   -5.7009    0.8366    1.7300 C   0  0  0  0  0  0  0  0  0  0  0  0
   -4.2638    0.7895    1.3975 C   0  0  0  0  0  0  0  0  0  0  0  0
   -3.4973    1.5168    2.2324 N   0  0  0  0  0  0  0  0  0  0  0  0
   -2.1741    1.5166    1.9848 C   0  0  0  0  0  0  0  0  0  0  0  0
   -1.5387    0.8298    0.9429 C   0  0  0  0  0  0  0  0  0  0  0  0
   -0.1165    0.8634    0.7231 C   0  0  0  0  0  0  0  0  0  0  0  0
    0.8173    1.5825    1.5114 C   0  0  0  0  0  0  0  0  0  0  0  0
    2.1918    1.5673    1.2374 C   0  0  0  0  0  0  0  0  0  0  0  0
    2.7034    0.8302    0.1678 C   0  0  0  0  0  0  0  0  0  0  0  0
    1.7947    0.1201   -0.6252 C   0  0  0  0  0  0  0  0  0  0  0  0
    0.4119    0.1333   -0.3541 C   0  0  0  0  0  0  0  0  0  0  0  0
   -0.4796   -0.5741   -1.1415 C   0  0  0  0  0  0  0  0  0  0  0  0
   -1.8142   -0.6120   -0.9434 N   0  0  0  0  0  0  0  0  0  0  0  0
   -2.3677    0.0730    0.0804 C   0  0  0  0  0  0  0  0  0  0  0  0
   -3.7584    0.0498    0.3082 C   0  0  0  0  0  0  0  0  0  0  0  0
   -4.7710   -0.6954   -0.5055 C   0  0  0  0  0  0  0  0  0  0  0  0
   -4.5585   -1.4710   -1.5905 C   0  0  0  0  0  0  0  0  0  0  0  0
    4.1307    0.8204   -0.1210 C   0  0  0  0  0  0  0  0  0  0  0  0
    4.8997    1.9771   -0.4286 C   0  0  0  0  0  0  0  0  0  0  0  0
    6.3104    1.9680   -0.7216 C   0  0  0  0  0  0  0  0  0  0  0  0
    7.1106    0.8040   -0.7350 C   0  0  0  0  0  0  0  0  0  0  0  0
    6.3472   -0.3128   -0.4252 C   0  0  0  0  0  0  0  0  0  0  0  0
    6.8112   -1.5994   -0.3348 C   0  0  0  0  0  0  0  0  0  0  0  0
    5.7354   -2.3885    0.0129 N   0  0  0  0  0  0  0  0  0  0  0  0
    4.5981   -1.6177    0.1429 C   0  0  0  0  0  0  0  0  0  0  0  0
    4.9482   -0.3179   -0.1361 C   0  0  0  0  0  0  0  0  0  0  0  0
   -6.2089   -3.6674   -2.1224 H   0  0  0  0  0  0  0  0  0  0  0  0
   -6.4878   -1.6657   -3.6087 H   0  0  0  0  0  0  0  0  0  0  0  0
   -8.1254   -1.3803   -0.8004 H   0  0  0  0  0  0  0  0  0  0  0  0
   -7.6726    0.2234    1.2741 H   0  0  0  0  0  0  0  0  0  0  0  0
   -5.9823    1.4359    2.5888 H   0  0  0  0  0  0  0  0  0  0  0  0
   -1.6177    2.1214    2.6943 H   0  0  0  0  0  0  0  0  0  0  0  0
    0.4960    2.1744    2.3645 H   0  0  0  0  0  0  0  0  0  0  0  0
    2.8645    2.1322    1.8809 H   0  0  0  0  0  0  0  0  0  0  0  0
    2.1719   -0.4494   -1.4745 H   0  0  0  0  0  0  0  0  0  0  0  0
   -0.1409   -1.1595   -1.9930 H   0  0  0  0  0  0  0  0  0  0  0  0
   -3.6217   -1.6974   -2.0718 H   0  0  0  0  0  0  0  0  0  0  0  0
    4.3922    2.9428   -0.4582 H   0  0  0  0  0  0  0  0  0  0  0  0
    6.7870    2.9224   -0.9479 H   0  0  0  0  0  0  0  0  0  0  0  0
    8.1685    0.8072   -0.9530 H   0  0  0  0  0  0  0  0  0  0  0  0
    7.7924   -2.0323   -0.4736 H   0  0  0  0  0  0  0  0  0  0  0  0
    5.7757   -3.3883    0.1624 H   0  0  0  0  0  0  0  0  0  0  0  0
    3.6597   -2.0736    0.4279 H   0  0  0  0  0  0  0  0  0  0  0  0
  1  2  1  0
  2  3  2  0
  3  4  1  0
  4  5  2  0
  5  6  1  0
  6  7  2  0
  7  8  1  0
  8  9  2  0
  9 10  1  0
 10 11  2  0
 11 12  1  0
 12 13  2  0
 13 14  1  0
 14 15  2  0
 15 16  1  0
 16 17  2  0
 17 18  1  0
 18 19  2  0
 19 20  1  0
 20 21  2  0
 13 22  1  0
 22 23  2  0
 23 24  1  0
 24 25  2  0
 25 26  1  0
 26 27  2  0
 27 28  1  0
 28 29  1  0
 29 30  2  0
 21  1  1  0
 30 22  1  0
 20  3  1  0
 30 26  1  0
 19  6  1  0
 18  9  1  0
 15 10  1  0
  1 31  1  0
  1 32  1  0
  2 33  1  0
  4 34  1  0
  5 35  1  0
  8 36  1  0
 11 37  1  0
 12 38  1  0
 14 39  1  0
 16 40  1  0
 21 41  1  0
 23 42  1  0
 24 43  1  0
 25 44  1  0
 27 45  1  0
 28 46  1  0
 29 47  1  0
M  END
