
     RDKit          3D

 36 41  0  0  0  0  0  0  0  0999 V2000
   -6.1372   -0.0431   -0.0298 C   0  0  0  0  0  0  0  0  0  0  0  0
   -5.7833    0.6813    1.0695 O   0  0  0  0  0  0  0  0  0  0  0  0
   -4.4154    0.7187    1.1153 C   0  0  0  0  0  0  0  0  0  0  0  0
   -3.8792    0.0261    0.0571 C   0  0  0  0  0  0  0  0  0  0  0  0
   -5.0059   -0.4610   -0.6749 C   0  0  0  0  0  0  0  0  0  0  0  0
   -4.9709   -1.2179   -1.8269 C   0  0  0  0  0  0  0  0  0  0  0  0
   -3.6276   -1.4519   -2.1938 C   0  0  0  0  0  0  0  0  0  0  0  0
   -2.4666   -0.9945   -1.5072 C   0  0  0  0  0  0  0  0  0  0  0  0
   -1.3076   -1.3550   -2.0652 N   0  0  0  0  0  0  0  0  0  0  0  0
   -0.1531   -0.9658   -1.4823 C   0  0  0  0  0  0  0  0  0  0  0  0
   -0.0867   -0.2023   -0.3211 C   0  0  0  0  0  0  0  0  0  0  0  0
    1.1615    0.1596    0.2195 C   0  0  0  0  0  0  0  0  0  0  0  0
    2.3882   -0.1633   -0.2818 O   0  0  0  0  0  0  0  0  0  0  0  0
    3.3296    0.3862    0.5467 C   0  0  0  0  0  0  0  0  0  0  0  0
    2.6995    1.0600    1.5771 C   0  0  0  0  0  0  0  0  0  0  0  0
    1.3033    0.9179    1.3721 C   0  0  0  0  0  0  0  0  0  0  0  0
    0.1431    1.3449    2.0312 C   0  0  0  0  0  0  0  0  0  0  0  0
   -1.1130    0.9887    1.4994 C   0  0  0  0  0  0  0  0  0  0  0  0
   -1.2684    0.2129    0.3202 C   0  0  0  0  0  0  0  0  0  0  0  0
   -2.5111   -0.2012   -0.2998 C   0  0  0  0  0  0  0  0  0  0  0  0
    4.7261    0.1659    0.2002 C   0  0  0  0  0  0  0  0  0  0  0  0
    4.9915   -0.5515   -0.8935 N   0  0  0  0  0  0  0  0  0  0  0  0
    6.2882   -0.7046   -1.1369 C   0  0  0  0  0  0  0  0  0  0  0  0
    7.2857   -0.2164   -0.4022 N   0  0  0  0  0  0  0  0  0  0  0  0
    6.8885    0.4800    0.6606 C   0  0  0  0  0  0  0  0  0  0  0  0
    5.6296    0.7102    1.0211 N   0  0  0  0  0  0  0  0  0  0  0  0
   -7.1994   -0.1570   -0.1946 H   0  0  0  0  0  0  0  0  0  0  0  0
   -4.0306    1.2730    1.9557 H   0  0  0  0  0  0  0  0  0  0  0  0
   -5.8180   -1.5890   -2.3847 H   0  0  0  0  0  0  0  0  0  0  0  0
   -3.4573   -2.0442   -3.0964 H   0  0  0  0  0  0  0  0  0  0  0  0
    0.7471   -1.2979   -1.9948 H   0  0  0  0  0  0  0  0  0  0  0  0
    3.1983    1.5887    2.3775 H   0  0  0  0  0  0  0  0  0  0  0  0
    0.2035    1.9409    2.9376 H   0  0  0  0  0  0  0  0  0  0  0  0
   -1.9776    1.3436    2.0464 H   0  0  0  0  0  0  0  0  0  0  0  0
    6.5594   -1.2804   -2.0154 H   0  0  0  0  0  0  0  0  0  0  0  0
    7.6658    0.8985    1.2912 H   0  0  0  0  0  0  0  0  0  0  0  0
  1  2  1  0
  2  3  1  0
  3  4  2  0
  4  5  1  0
  5  6  1  0
  6  7  2  0
  7  8  1  0
  8  9  2  0
  9 10  1  0
 10 11  2  0
 11 12  1  0
 12 13  1  0
 13 14  1  0
 14 15  2  0
 15 16  1  0
 16 17  1  0
 17 18  2  0
 18 19  1  0
 19 20  2  0
 14 21  1  0
 21 22  2  0
 22 23  1  0
 23 24  2  0
 24 25  1  0
 25 26  2  0
  5  1  2  0
 20  8  1  0
 26 21  1  0
 20  4  1  0
 19 11  1  0
 16 12  2  0
  1 27  1  0
  3 28  1  0
  6 29  1  0
  7 30  1  0
 10 31  1  0
 15 32  1  0
 17 33  1  0
 18 34  1  0
 23 35  1  0
 25 36  1  0
M  END
