
     RDKit          3D

 41 47  0  0  0  0  0  0  0  0999 V2000
    7.0851   -0.3421   -0.0601 C   0  0  0  0  0  0  0  0  0  0  0  0
    6.7430   -1.6584    0.1588 O   0  0  0  0  0  0  0  0  0  0  0  0
    5.3696   -1.7347    0.1869 C   0  0  0  0  0  0  0  0  0  0  0  0
    4.8962   -0.4790   -0.0128 C   0  0  0  0  0  0  0  0  0  0  0  0
    5.9531    0.4286   -0.1731 C   0  0  0  0  0  0  0  0  0  0  0  0
    5.8961    1.8026   -0.3969 C   0  0  0  0  0  0  0  0  0  0  0  0
    4.5669    2.2898   -0.4613 C   0  0  0  0  0  0  0  0  0  0  0  0
    3.4802    1.3974   -0.3032 C   0  0  0  0  0  0  0  0  0  0  0  0
    2.1456    1.7115   -0.3394 O   0  0  0  0  0  0  0  0  0  0  0  0
    1.4574    0.5394   -0.1401 C   0  0  0  0  0  0  0  0  0  0  0  0
    2.3303   -0.5394    0.0262 C   0  0  0  0  0  0  0  0  0  0  0  0
    1.9178   -1.8145    0.2391 N   0  0  0  0  0  0  0  0  0  0  0  0
    0.5668   -1.9676    0.2794 C   0  0  0  0  0  0  0  0  0  0  0  0
   -0.4061   -0.9695    0.1275 C   0  0  0  0  0  0  0  0  0  0  0  0
   -1.8295   -1.2474    0.1890 C   0  0  0  0  0  0  0  0  0  0  0  0
   -2.8981   -0.2954    0.0457 C   0  0  0  0  0  0  0  0  0  0  0  0
   -4.3378   -0.6164    0.1145 C   0  0  0  0  0  0  0  0  0  0  0  0
   -4.8256   -1.9085    0.3313 C   0  0  0  0  0  0  0  0  0  0  0  0
   -6.2023   -2.1375    0.3843 C   0  0  0  0  0  0  0  0  0  0  0  0
   -7.0763   -1.0757    0.2206 C   0  0  0  0  0  0  0  0  0  0  0  0
   -6.5315    0.1740    0.0101 C   0  0  0  0  0  0  0  0  0  0  0  0
   -5.2019    0.4159   -0.0445 N   0  0  0  0  0  0  0  0  0  0  0  0
   -2.3383    0.9810   -0.1691 C   0  0  0  0  0  0  0  0  0  0  0  0
   -2.9703    2.1871   -0.3590 C   0  0  0  0  0  0  0  0  0  0  0  0
   -2.0546    3.1865   -0.5326 O   0  0  0  0  0  0  0  0  0  0  0  0
   -0.8150    2.6242   -0.4549 C   0  0  0  0  0  0  0  0  0  0  0  0
   -0.9343    1.2771   -0.2335 C   0  0  0  0  0  0  0  0  0  0  0  0
    0.0856    0.3429   -0.0925 C   0  0  0  0  0  0  0  0  0  0  0  0
    3.5857    0.0384   -0.0825 C   0  0  0  0  0  0  0  0  0  0  0  0
    8.1473   -0.1469   -0.1040 H   0  0  0  0  0  0  0  0  0  0  0  0
    4.9442   -2.7142    0.3517 H   0  0  0  0  0  0  0  0  0  0  0  0
    6.7581    2.4469   -0.5119 H   0  0  0  0  0  0  0  0  0  0  0  0
    4.3767    3.3456   -0.6317 H   0  0  0  0  0  0  0  0  0  0  0  0
    0.2623   -2.9997    0.4515 H   0  0  0  0  0  0  0  0  0  0  0  0
   -2.0945   -2.2911    0.3625 H   0  0  0  0  0  0  0  0  0  0  0  0
   -4.1653   -2.7569    0.4625 H   0  0  0  0  0  0  0  0  0  0  0  0
   -6.5837   -3.1408    0.5527 H   0  0  0  0  0  0  0  0  0  0  0  0
   -8.1502   -1.2171    0.2559 H   0  0  0  0  0  0  0  0  0  0  0  0
   -7.1648    1.0461   -0.1254 H   0  0  0  0  0  0  0  0  0  0  0  0
   -4.0009    2.5095   -0.3999 H   0  0  0  0  0  0  0  0  0  0  0  0
    0.0131    3.3084   -0.5760 H   0  0  0  0  0  0  0  0  0  0  0  0
  1  2  1  0
  2  3  1  0
  3  4  2  0
  4  5  1  0
  5  6  1  0
  6  7  2  0
  7  8  1  0
  8  9  1  0
  9 10  1  0
 10 11  2  0
 11 12  1  0
 12 13  2  0
 13 14  1  0
 14 15  1  0
 15 16  2  0
 16 17  1  0
 17 18  2  0
 18 19  1  0
 19 20  2  0
 20 21  1  0
 21 22  2  0
 16 23  1  0
 23 24  2  0
 24 25  1  0
 25 26  1  0
 26 27  2  0
 27 28  1  0
 11 29  1  0
  5  1  2  0
 29  8  2  0
 29  4  1  0
 28 10  1  0
 28 14  2  0
 22 17  1  0
 27 23  1  0
  1 30  1  0
  3 31  1  0
  6 32  1  0
  7 33  1  0
 13 34  1  0
 15 35  1  0
 18 36  1  0
 19 37  1  0
 20 38  1  0
 21 39  1  0
 24 40  1  0
 26 41  1  0
M  END
