
     RDKit          3D

 47 54  0  0  0  0  0  0  0  0999 V2000
    2.6672    2.9054    1.5130 C   0  0  0  0  0  0  0  0  0  0  0  0
    0.9766    2.9176    1.6984 S   0  0  0  0  0  0  0  0  0  0  0  0
    0.8013    1.3928    0.9118 C   0  0  0  0  0  0  0  0  0  0  0  0
   -0.5444    0.8913    0.8001 C   0  0  0  0  0  0  0  0  0  0  0  0
   -1.1912    0.0679    1.7251 C   0  0  0  0  0  0  0  0  0  0  0  0
   -2.5084   -0.2005    1.2742 C   0  0  0  0  0  0  0  0  0  0  0  0
   -3.6703   -0.8690    1.5760 N   0  0  0  0  0  0  0  0  0  0  0  0
   -4.5969   -0.6513    0.5977 C   0  0  0  0  0  0  0  0  0  0  0  0
   -5.9006   -0.8801    0.0875 C   0  0  0  0  0  0  0  0  0  0  0  0
   -7.0230   -1.6024    0.4965 C   0  0  0  0  0  0  0  0  0  0  0  0
   -8.1483   -1.6055   -0.2595 N   0  0  0  0  0  0  0  0  0  0  0  0
   -8.1623   -0.8972   -1.4119 C   0  0  0  0  0  0  0  0  0  0  0  0
   -7.1041   -0.1471   -1.9080 C   0  0  0  0  0  0  0  0  0  0  0  0
   -5.9491   -0.1483   -1.1269 C   0  0  0  0  0  0  0  0  0  0  0  0
   -4.7346    0.4926   -1.3407 N   0  0  0  0  0  0  0  0  0  0  0  0
   -3.9862    0.1508   -0.2863 C   0  0  0  0  0  0  0  0  0  0  0  0
   -2.7381    0.4319    0.1005 C   0  0  0  0  0  0  0  0  0  0  0  0
   -1.5286    1.3541   -0.5702 S   0  0  0  0  0  0  0  0  0  0  0  0
    2.0280    0.8693    0.5176 C   0  0  0  0  0  0  0  0  0  0  0  0
    3.1126    1.7696    0.8768 C   0  0  0  0  0  0  0  0  0  0  0  0
    4.4883    1.5304    0.6164 C   0  0  0  0  0  0  0  0  0  0  0  0
    5.5458    2.4152    0.9691 C   0  0  0  0  0  0  0  0  0  0  0  0
    6.8645    2.0979    0.6751 C   0  0  0  0  0  0  0  0  0  0  0  0
    7.1436    0.9054    0.0316 C   0  0  0  0  0  0  0  0  0  0  0  0
    6.1045    0.0304   -0.3180 C   0  0  0  0  0  0  0  0  0  0  0  0
    4.7334    0.2882   -0.0496 C   0  0  0  0  0  0  0  0  0  0  0  0
    3.6502   -0.6411   -0.4232 C   0  0  0  0  0  0  0  0  0  0  0  0
    3.9214   -1.8679   -1.0832 C   0  0  0  0  0  0  0  0  0  0  0  0
    2.9332   -2.7835   -1.4613 C   0  0  0  0  0  0  0  0  0  0  0  0
    1.6059   -2.5143   -1.1954 C   0  0  0  0  0  0  0  0  0  0  0  0
    1.2678   -1.3304   -0.5503 C   0  0  0  0  0  0  0  0  0  0  0  0
    2.2559   -0.3840   -0.1546 C   0  0  0  0  0  0  0  0  0  0  0  0
    3.2292    3.7456    1.8929 H   0  0  0  0  0  0  0  0  0  0  0  0
   -0.7389   -0.3019    2.6364 H   0  0  0  0  0  0  0  0  0  0  0  0
   -3.8164   -1.4363    2.4003 H   0  0  0  0  0  0  0  0  0  0  0  0
   -7.0549   -2.1819    1.4113 H   0  0  0  0  0  0  0  0  0  0  0  0
   -9.0993   -0.9484   -1.9613 H   0  0  0  0  0  0  0  0  0  0  0  0
   -7.1796    0.3989   -2.8394 H   0  0  0  0  0  0  0  0  0  0  0  0
   -4.4541    1.0881   -2.1093 H   0  0  0  0  0  0  0  0  0  0  0  0
    5.3494    3.3560    1.4738 H   0  0  0  0  0  0  0  0  0  0  0  0
    7.6672    2.7777    0.9466 H   0  0  0  0  0  0  0  0  0  0  0  0
    8.1718    0.6431   -0.2057 H   0  0  0  0  0  0  0  0  0  0  0  0
    6.4139   -0.8815   -0.8203 H   0  0  0  0  0  0  0  0  0  0  0  0
    4.9385   -2.1570   -1.3313 H   0  0  0  0  0  0  0  0  0  0  0  0
    3.2128   -3.7050   -1.9657 H   0  0  0  0  0  0  0  0  0  0  0  0
    0.8315   -3.2180   -1.4877 H   0  0  0  0  0  0  0  0  0  0  0  0
    0.2145   -1.1675   -0.3692 H   0  0  0  0  0  0  0  0  0  0  0  0
  1  2  1  0
  2  3  1  0
  3  4  1  0
  4  5  2  0
  5  6  1  0
  6  7  1  0
  7  8  1  0
  8  9  1  0
  9 10  2  0
 10 11  1  0
 11 12  2  0
 12 13  1  0
 13 14  2  0
 14 15  1  0
 15 16  1  0
 16 17  1  0
 17 18  1  0
  3 19  2  0
 19 20  1  0
 20 21  1  0
 21 22  2  0
 22 23  1  0
 23 24  2  0
 24 25  1  0
 25 26  2  0
 26 27  1  0
 27 28  2  0
 28 29  1  0
 29 30  2  0
 30 31  1  0
 31 32  2  0
 20  1  2  0
 26 21  1  0
 32 27  1  0
 18  4  1  0
 32 19  1  0
 17  6  2  0
 16  8  2  0
 14  9  1  0
  1 33  1  0
  5 34  1  0
  7 35  1  0
 10 36  1  0
 12 37  1  0
 13 38  1  0
 15 39  1  0
 22 40  1  0
 23 41  1  0
 24 42  1  0
 25 43  1  0
 28 44  1  0
 29 45  1  0
 30 46  1  0
 31 47  1  0
M  END
