
     RDKit          3D

 42 49  0  0  0  0  0  0  0  0999 V2000
    5.3319   -2.6322    0.3030 C   0  0  0  0  0  0  0  0  0  0  0  0
    3.6240   -2.6804    0.2146 S   0  0  0  0  0  0  0  0  0  0  0  0
    3.4744   -0.9536    0.1900 C   0  0  0  0  0  0  0  0  0  0  0  0
    2.1741   -0.3285    0.1163 C   0  0  0  0  0  0  0  0  0  0  0  0
    1.8292    1.0150    0.0866 C   0  0  0  0  0  0  0  0  0  0  0  0
    0.4367    1.0441    0.0129 C   0  0  0  0  0  0  0  0  0  0  0  0
   -0.4616    2.1397   -0.0439 C   0  0  0  0  0  0  0  0  0  0  0  0
   -0.0697    3.4462   -0.0345 C   0  0  0  0  0  0  0  0  0  0  0  0
   -1.4670    4.4381   -0.1167 S   0  0  0  0  0  0  0  0  0  0  0  0
   -2.5219    3.0691   -0.1607 C   0  0  0  0  0  0  0  0  0  0  0  0
   -1.8571    1.8578   -0.1152 C   0  0  0  0  0  0  0  0  0  0  0  0
   -2.4988    0.5680   -0.1380 C   0  0  0  0  0  0  0  0  0  0  0  0
   -3.9199    0.3001   -0.2109 C   0  0  0  0  0  0  0  0  0  0  0  0
   -4.8322    1.2961   -0.2677 N   0  0  0  0  0  0  0  0  0  0  0  0
   -6.1570    1.0187   -0.3354 C   0  0  0  0  0  0  0  0  0  0  0  0
   -6.6780   -0.2555   -0.3520 C   0  0  0  0  0  0  0  0  0  0  0  0
   -5.7824   -1.3071   -0.2955 C   0  0  0  0  0  0  0  0  0  0  0  0
   -4.3992   -1.0371   -0.2247 C   0  0  0  0  0  0  0  0  0  0  0  0
   -3.4476   -2.1049   -0.1652 C   0  0  0  0  0  0  0  0  0  0  0  0
   -3.7263   -3.4225   -0.1686 N   0  0  0  0  0  0  0  0  0  0  0  0
   -2.2817   -4.2239   -0.0853 S   0  0  0  0  0  0  0  0  0  0  0  0
   -1.2316   -2.9445   -0.0408 N   0  0  0  0  0  0  0  0  0  0  0  0
   -1.9772   -1.8221   -0.0899 C   0  0  0  0  0  0  0  0  0  0  0  0
   -1.4983   -0.4824   -0.0761 C   0  0  0  0  0  0  0  0  0  0  0  0
   -0.1057   -0.2192   -0.0049 C   0  0  0  0  0  0  0  0  0  0  0  0
    0.9943   -1.0517    0.0604 N   0  0  0  0  0  0  0  0  0  0  0  0
    4.7271   -0.3665    0.2494 C   0  0  0  0  0  0  0  0  0  0  0  0
    4.9533    0.9827    0.2479 N   0  0  0  0  0  0  0  0  0  0  0  0
    6.2832    1.2608    0.3143 C   0  0  0  0  0  0  0  0  0  0  0  0
    7.3052    0.3073    0.3767 C   0  0  0  0  0  0  0  0  0  0  0  0
    7.1191   -1.0402    0.3803 N   0  0  0  0  0  0  0  0  0  0  0  0
    5.7926   -1.3429    0.3143 C   0  0  0  0  0  0  0  0  0  0  0  0
    5.9134   -3.5417    0.3421 H   0  0  0  0  0  0  0  0  0  0  0  0
    2.5169    1.8494    0.1156 H   0  0  0  0  0  0  0  0  0  0  0  0
    0.9202    3.8774    0.0142 H   0  0  0  0  0  0  0  0  0  0  0  0
   -3.5808    3.2707   -0.2183 H   0  0  0  0  0  0  0  0  0  0  0  0
   -6.8062    1.8893   -0.3772 H   0  0  0  0  0  0  0  0  0  0  0  0
   -7.7470   -0.4242   -0.4071 H   0  0  0  0  0  0  0  0  0  0  0  0
   -6.1505   -2.3306   -0.3062 H   0  0  0  0  0  0  0  0  0  0  0  0
    0.9323   -2.0623    0.0657 H   0  0  0  0  0  0  0  0  0  0  0  0
    6.5267    2.3197    0.3165 H   0  0  0  0  0  0  0  0  0  0  0  0
    8.3432    0.6242    0.4275 H   0  0  0  0  0  0  0  0  0  0  0  0
  1  2  1  0
  2  3  1  0
  3  4  1  0
  4  5  2  0
  5  6  1  0
  6  7  1  0
  7  8  2  0
  8  9  1  0
  9 10  1  0
 10 11  2  0
 11 12  1  0
 12 13  1  0
 13 14  2  0
 14 15  1  0
 15 16  2  0
 16 17  1  0
 17 18  2  0
 18 19  1  0
 19 20  2  0
 20 21  1  0
 21 22  1  0
 22 23  2  0
 23 24  1  0
 24 25  1  0
 25 26  1  0
  3 27  2  0
 27 28  1  0
 28 29  2  0
 29 30  1  0
 30 31  2  0
 31 32  1  0
 32  1  2  0
 26  4  1  0
 32 27  1  0
 25  6  2  0
 11  7  1  0
 24 12  2  0
 18 13  1  0
 23 19  1  0
  1 33  1  0
  5 34  1  0
  8 35  1  0
 10 36  1  0
 15 37  1  0
 16 38  1  0
 17 39  1  0
 26 40  1  0
 29 41  1  0
 30 42  1  0
M  END
