
     RDKit          3D

 39 44  0  0  0  0  0  0  0  0999 V2000
    5.5398    2.3658   -1.7383 C   0  0  0  0  0  0  0  0  0  0  0  0
    3.8521    2.6083   -1.6877 S   0  0  0  0  0  0  0  0  0  0  0  0
    3.5353    1.0816   -0.9141 C   0  0  0  0  0  0  0  0  0  0  0  0
    2.1460    0.6897   -0.5850 C   0  0  0  0  0  0  0  0  0  0  0  0
    1.0257    1.4715   -0.8533 C   0  0  0  0  0  0  0  0  0  0  0  0
   -0.2576    1.0155   -0.5036 C   0  0  0  0  0  0  0  0  0  0  0  0
   -1.3782    1.8014   -0.7739 C   0  0  0  0  0  0  0  0  0  0  0  0
   -2.6552    1.3597   -0.4317 C   0  0  0  0  0  0  0  0  0  0  0  0
   -2.8734    0.1193    0.1930 C   0  0  0  0  0  0  0  0  0  0  0  0
   -1.7438   -0.6968    0.4770 C   0  0  0  0  0  0  0  0  0  0  0  0
   -1.9864   -1.9364    1.1038 C   0  0  0  0  0  0  0  0  0  0  0  0
   -3.2747   -2.3507    1.4338 C   0  0  0  0  0  0  0  0  0  0  0  0
   -4.3711   -1.5366    1.1474 C   0  0  0  0  0  0  0  0  0  0  0  0
   -5.6693   -1.9509    1.4782 C   0  0  0  0  0  0  0  0  0  0  0  0
   -6.7529   -1.1351    1.1898 C   0  0  0  0  0  0  0  0  0  0  0  0
   -6.4983    0.0723    0.5775 C   0  0  0  0  0  0  0  0  0  0  0  0
   -5.2603    0.4996    0.2462 N   0  0  0  0  0  0  0  0  0  0  0  0
   -4.1887   -0.2860    0.5213 C   0  0  0  0  0  0  0  0  0  0  0  0
   -0.4245   -0.2351    0.1210 C   0  0  0  0  0  0  0  0  0  0  0  0
    0.7710   -0.9353    0.3421 C   0  0  0  0  0  0  0  0  0  0  0  0
    2.0154   -0.5100    0.0113 N   0  0  0  0  0  0  0  0  0  0  0  0
    4.7369    0.4153   -0.7101 C   0  0  0  0  0  0  0  0  0  0  0  0
    4.8600   -0.8140   -0.1249 N   0  0  0  0  0  0  0  0  0  0  0  0
    6.1546   -1.2164   -0.0585 C   0  0  0  0  0  0  0  0  0  0  0  0
    7.2490   -0.4829   -0.5242 C   0  0  0  0  0  0  0  0  0  0  0  0
    7.1758    0.7408   -1.1116 N   0  0  0  0  0  0  0  0  0  0  0  0
    5.8824    1.1622   -1.1875 C   0  0  0  0  0  0  0  0  0  0  0  0
    6.1992    3.1077   -2.1646 H   0  0  0  0  0  0  0  0  0  0  0  0
    1.1237    2.4394   -1.3336 H   0  0  0  0  0  0  0  0  0  0  0  0
   -1.2772    2.7720   -1.2557 H   0  0  0  0  0  0  0  0  0  0  0  0
   -3.5023    2.0067   -0.6617 H   0  0  0  0  0  0  0  0  0  0  0  0
   -1.1723   -2.6127    1.3514 H   0  0  0  0  0  0  0  0  0  0  0  0
   -3.4101   -3.3162    1.9166 H   0  0  0  0  0  0  0  0  0  0  0  0
   -5.8411   -2.9095    1.9614 H   0  0  0  0  0  0  0  0  0  0  0  0
   -7.7651   -1.4337    1.4359 H   0  0  0  0  0  0  0  0  0  0  0  0
   -7.3045    0.7553    0.3259 H   0  0  0  0  0  0  0  0  0  0  0  0
    0.7821   -1.9121    0.8158 H   0  0  0  0  0  0  0  0  0  0  0  0
    6.3040   -2.1897    0.3997 H   0  0  0  0  0  0  0  0  0  0  0  0
    8.2538   -0.8845   -0.4292 H   0  0  0  0  0  0  0  0  0  0  0  0
  1  2  1  0
  2  3  1  0
  3  4  1  0
  4  5  2  0
  5  6  1  0
  6  7  2  0
  7  8  1  0
  8  9  2  0
  9 10  1  0
 10 11  1  0
 11 12  2  0
 12 13  1  0
 13 14  2  0
 14 15  1  0
 15 16  2  0
 16 17  1  0
 17 18  2  0
 10 19  2  0
 19 20  1  0
 20 21  2  0
  3 22  2  0
 22 23  1  0
 23 24  2  0
 24 25  1  0
 25 26  2  0
 26 27  1  0
 27  1  2  0
 21  4  1  0
 27 22  1  0
 19  6  1  0
 18  9  1  0
 18 13  1  0
  1 28  1  0
  5 29  1  0
  7 30  1  0
  8 31  1  0
 11 32  1  0
 12 33  1  0
 14 34  1  0
 15 35  1  0
 16 36  1  0
 20 37  1  0
 24 38  1  0
 25 39  1  0
M  END
