
     RDKit          3D

 36 41  0  0  0  0  0  0  0  0999 V2000
    5.3591   -1.9894    1.9859 C   0  0  0  0  0  0  0  0  0  0  0  0
    3.6582   -2.1025    2.0486 S   0  0  0  0  0  0  0  0  0  0  0  0
    3.4058   -0.8301    0.8848 C   0  0  0  0  0  0  0  0  0  0  0  0
    2.0226   -0.4389    0.4960 C   0  0  0  0  0  0  0  0  0  0  0  0
    1.7753    0.5731   -0.4307 C   0  0  0  0  0  0  0  0  0  0  0  0
    0.5666    1.0112   -0.8580 N   0  0  0  0  0  0  0  0  0  0  0  0
   -0.5220    0.3916   -0.3200 C   0  0  0  0  0  0  0  0  0  0  0  0
   -0.3927   -0.6298    0.6125 C   0  0  0  0  0  0  0  0  0  0  0  0
    0.8826   -1.0567    1.0312 C   0  0  0  0  0  0  0  0  0  0  0  0
   -1.9186   -1.2196    1.1130 S   0  0  0  0  0  0  0  0  0  0  0  0
   -2.7853   -0.1282    0.0993 C   0  0  0  0  0  0  0  0  0  0  0  0
   -1.9023    0.6840   -0.6187 C   0  0  0  0  0  0  0  0  0  0  0  0
   -2.3330    1.6377   -1.4968 N   0  0  0  0  0  0  0  0  0  0  0  0
   -3.6651    1.7604   -1.6400 C   0  0  0  0  0  0  0  0  0  0  0  0
   -4.6303    1.0089   -0.9791 C   0  0  0  0  0  0  0  0  0  0  0  0
   -6.0090    1.1963   -1.1824 C   0  0  0  0  0  0  0  0  0  0  0  0
   -6.9399    0.4158   -0.4942 C   0  0  0  0  0  0  0  0  0  0  0  0
   -6.5080   -0.5589    0.4029 C   0  0  0  0  0  0  0  0  0  0  0  0
   -5.1432   -0.7585    0.6169 C   0  0  0  0  0  0  0  0  0  0  0  0
   -4.1922    0.0253   -0.0738 C   0  0  0  0  0  0  0  0  0  0  0  0
    4.6430   -0.3478    0.4752 C   0  0  0  0  0  0  0  0  0  0  0  0
    4.8129    0.6569   -0.4349 N   0  0  0  0  0  0  0  0  0  0  0  0
    6.1296    0.9249   -0.6475 C   0  0  0  0  0  0  0  0  0  0  0  0
    7.1956    0.2689   -0.0253 C   0  0  0  0  0  0  0  0  0  0  0  0
    7.0692   -0.7334    0.8837 N   0  0  0  0  0  0  0  0  0  0  0  0
    5.7571   -1.0177    1.1112 C   0  0  0  0  0  0  0  0  0  0  0  0
    5.9846   -2.6335    2.5869 H   0  0  0  0  0  0  0  0  0  0  0  0
    2.5870    1.1167   -0.9060 H   0  0  0  0  0  0  0  0  0  0  0  0
    0.9464   -1.8570    1.7609 H   0  0  0  0  0  0  0  0  0  0  0  0
   -3.9571    2.5324   -2.3494 H   0  0  0  0  0  0  0  0  0  0  0  0
   -6.3665    1.9522   -1.8786 H   0  0  0  0  0  0  0  0  0  0  0  0
   -8.0038    0.5687   -0.6586 H   0  0  0  0  0  0  0  0  0  0  0  0
   -7.2350   -1.1654    0.9376 H   0  0  0  0  0  0  0  0  0  0  0  0
   -4.8335   -1.5255    1.3222 H   0  0  0  0  0  0  0  0  0  0  0  0
    6.3229    1.7182   -1.3647 H   0  0  0  0  0  0  0  0  0  0  0  0
    8.2192    0.5498   -0.2567 H   0  0  0  0  0  0  0  0  0  0  0  0
  1  2  1  0
  2  3  1  0
  3  4  1  0
  4  5  2  0
  5  6  1  0
  6  7  2  0
  7  8  1  0
  8  9  2  0
  8 10  1  0
 10 11  1  0
 11 12  2  0
 12 13  1  0
 13 14  2  0
 14 15  1  0
 15 16  2  0
 16 17  1  0
 17 18  2  0
 18 19  1  0
 19 20  2  0
  3 21  2  0
 21 22  1  0
 22 23  2  0
 23 24  1  0
 24 25  2  0
 25 26  1  0
 26  1  2  0
  9  4  1  0
 20 11  1  0
 26 21  1  0
 12  7  1  0
 20 15  1  0
  1 27  1  0
  5 28  1  0
  9 29  1  0
 14 30  1  0
 16 31  1  0
 17 32  1  0
 18 33  1  0
 19 34  1  0
 23 35  1  0
 24 36  1  0
M  END
