
     RDKit          3D

 42 48  0  0  0  0  0  0  0  0999 V2000
   -6.2520    0.8431   -2.0676 C   0  0  0  0  0  0  0  0  0  0  0  0
   -5.0411    1.7510   -2.8812 S   0  0  0  0  0  0  0  0  0  0  0  0
   -3.7759    1.0154   -1.9774 C   0  0  0  0  0  0  0  0  0  0  0  0
   -4.2604    0.1050   -1.0658 C   0  0  0  0  0  0  0  0  0  0  0  0
   -3.4632   -0.6551   -0.1887 C   0  0  0  0  0  0  0  0  0  0  0  0
   -4.2546   -1.5270    0.6057 C   0  0  0  0  0  0  0  0  0  0  0  0
   -5.6829   -1.6168    0.5318 C   0  0  0  0  0  0  0  0  0  0  0  0
   -6.4749   -0.8485   -0.3462 C   0  0  0  0  0  0  0  0  0  0  0  0
   -5.6997    0.0034   -1.1322 C   0  0  0  0  0  0  0  0  0  0  0  0
   -2.0107   -0.5751   -0.0952 C   0  0  0  0  0  0  0  0  0  0  0  0
   -1.2098   -1.6563   -0.4998 C   0  0  0  0  0  0  0  0  0  0  0  0
    0.1868   -1.6040   -0.4142 C   0  0  0  0  0  0  0  0  0  0  0  0
    0.8191   -0.4542    0.0892 C   0  0  0  0  0  0  0  0  0  0  0  0
    2.2353   -0.3705    0.1876 C   0  0  0  0  0  0  0  0  0  0  0  0
    3.2386   -1.2626   -0.1372 N   0  0  0  0  0  0  0  0  0  0  0  0
    4.4884   -0.7392    0.1363 C   0  0  0  0  0  0  0  0  0  0  0  0
    5.7552   -1.3090   -0.0428 C   0  0  0  0  0  0  0  0  0  0  0  0
    6.8679   -0.5465    0.3235 C   0  0  0  0  0  0  0  0  0  0  0  0
    6.7184    0.7347    0.8480 C   0  0  0  0  0  0  0  0  0  0  0  0
    5.4461    1.2915    1.0215 C   0  0  0  0  0  0  0  0  0  0  0  0
    4.3070    0.5443    0.6603 C   0  0  0  0  0  0  0  0  0  0  0  0
    2.9133    0.7320    0.6751 C   0  0  0  0  0  0  0  0  0  0  0  0
    2.1653    1.8717    1.1134 C   0  0  0  0  0  0  0  0  0  0  0  0
    2.7290    2.9699    1.5935 N   0  0  0  0  0  0  0  0  0  0  0  0
    1.4103    3.9413    1.9349 S   0  0  0  0  0  0  0  0  0  0  0  0
    0.1571    2.9391    1.4629 N   0  0  0  0  0  0  0  0  0  0  0  0
    0.7156    1.7925    1.0147 C   0  0  0  0  0  0  0  0  0  0  0  0
    0.0232    0.6449    0.5080 C   0  0  0  0  0  0  0  0  0  0  0  0
   -1.3832    0.5719    0.4139 C   0  0  0  0  0  0  0  0  0  0  0  0
   -7.2925    0.9790   -2.3280 H   0  0  0  0  0  0  0  0  0  0  0  0
   -2.7521    1.3018   -2.1753 H   0  0  0  0  0  0  0  0  0  0  0  0
   -3.7497   -2.1674    1.3312 H   0  0  0  0  0  0  0  0  0  0  0  0
   -6.1842   -2.3203    1.1976 H   0  0  0  0  0  0  0  0  0  0  0  0
   -7.5529   -0.9305   -0.3873 H   0  0  0  0  0  0  0  0  0  0  0  0
   -1.6791   -2.5550   -0.8981 H   0  0  0  0  0  0  0  0  0  0  0  0
    0.7573   -2.4665   -0.7454 H   0  0  0  0  0  0  0  0  0  0  0  0
    3.0872   -2.1814   -0.5257 H   0  0  0  0  0  0  0  0  0  0  0  0
    5.8782   -2.3069   -0.4512 H   0  0  0  0  0  0  0  0  0  0  0  0
    7.8658   -0.9604    0.1967 H   0  0  0  0  0  0  0  0  0  0  0  0
    7.5968    1.3118    1.1268 H   0  0  0  0  0  0  0  0  0  0  0  0
    5.3443    2.2925    1.4318 H   0  0  0  0  0  0  0  0  0  0  0  0
   -1.9873    1.4165    0.7444 H   0  0  0  0  0  0  0  0  0  0  0  0
  1  2  1  0
  2  3  1  0
  3  4  2  0
  4  5  1  0
  5  6  2  0
  6  7  1  0
  7  8  2  0
  8  9  1  0
  5 10  1  0
 10 11  2  0
 11 12  1  0
 12 13  2  0
 13 14  1  0
 14 15  1  0
 15 16  1  0
 16 17  2  0
 17 18  1  0
 18 19  2  0
 19 20  1  0
 20 21  2  0
 21 22  1  0
 22 23  1  0
 23 24  2  0
 24 25  1  0
 25 26  1  0
 26 27  2  0
 27 28  1  0
 28 29  2  0
  9  1  2  0
 29 10  1  0
  9  4  1  0
 28 13  1  0
 22 14  2  0
 27 23  1  0
 21 16  1  0
  1 30  1  0
  3 31  1  0
  6 32  1  0
  7 33  1  0
  8 34  1  0
 11 35  1  0
 12 36  1  0
 15 37  1  0
 17 38  1  0
 18 39  1  0
 19 40  1  0
 20 41  1  0
 29 42  1  0
M  END
