
     RDKit          3D

 43 49  0  0  0  0  0  0  0  0999 V2000
    2.4532    0.9094   -2.2737 C   0  0  0  0  0  0  0  0  0  0  0  0
    1.4443    0.8188   -3.6496 S   0  0  0  0  0  0  0  0  0  0  0  0
    0.0633    0.4761   -2.6881 C   0  0  0  0  0  0  0  0  0  0  0  0
    0.3257    0.4996   -1.3364 C   0  0  0  0  0  0  0  0  0  0  0  0
    1.7535    0.6794   -1.1105 C   0  0  0  0  0  0  0  0  0  0  0  0
    2.3528    0.6320    0.1508 C   0  0  0  0  0  0  0  0  0  0  0  0
    1.4171    0.3399    1.1618 C   0  0  0  0  0  0  0  0  0  0  0  0
    0.0296    0.1568    0.9768 C   0  0  0  0  0  0  0  0  0  0  0  0
   -0.6274   -0.1438    2.0909 N   0  0  0  0  0  0  0  0  0  0  0  0
   -1.9645   -0.3383    2.0292 C   0  0  0  0  0  0  0  0  0  0  0  0
   -2.7764   -0.2049    0.9001 C   0  0  0  0  0  0  0  0  0  0  0  0
   -4.2087   -0.3974    0.9391 C   0  0  0  0  0  0  0  0  0  0  0  0
   -4.9426   -0.8055    2.0854 C   0  0  0  0  0  0  0  0  0  0  0  0
   -6.3310   -0.9739    2.0656 C   0  0  0  0  0  0  0  0  0  0  0  0
   -7.0385   -0.7384    0.8978 C   0  0  0  0  0  0  0  0  0  0  0  0
   -6.3557   -0.3353   -0.2455 C   0  0  0  0  0  0  0  0  0  0  0  0
   -4.9600   -0.1659   -0.2339 C   0  0  0  0  0  0  0  0  0  0  0  0
   -4.3087    0.2528   -1.3888 C   0  0  0  0  0  0  0  0  0  0  0  0
   -2.9220    0.4165   -1.4100 C   0  0  0  0  0  0  0  0  0  0  0  0
   -2.1017    0.1563   -0.2923 C   0  0  0  0  0  0  0  0  0  0  0  0
   -0.6449    0.2755   -0.2830 C   0  0  0  0  0  0  0  0  0  0  0  0
    3.7737    0.8101    0.3984 C   0  0  0  0  0  0  0  0  0  0  0  0
    4.2968    2.1799    1.3081 S   0  0  0  0  0  0  0  0  0  0  0  0
    5.9507    1.7389    1.1901 C   0  0  0  0  0  0  0  0  0  0  0  0
    6.1066    0.5767    0.4805 C   0  0  0  0  0  0  0  0  0  0  0  0
    7.3224    0.0100    0.2444 N   0  0  0  0  0  0  0  0  0  0  0  0
    7.1844   -1.1362   -0.4781 C   0  0  0  0  0  0  0  0  0  0  0  0
    5.9680   -1.6671   -0.9255 C   0  0  0  0  0  0  0  0  0  0  0  0
    4.7430   -1.1162   -0.7052 N   0  0  0  0  0  0  0  0  0  0  0  0
    4.8498    0.0347    0.0213 C   0  0  0  0  0  0  0  0  0  0  0  0
    3.5095    1.0968   -2.4093 H   0  0  0  0  0  0  0  0  0  0  0  0
   -0.8444    0.2599   -3.2236 H   0  0  0  0  0  0  0  0  0  0  0  0
    1.7907    0.2344    2.1830 H   0  0  0  0  0  0  0  0  0  0  0  0
   -2.3780   -0.5995    2.9988 H   0  0  0  0  0  0  0  0  0  0  0  0
   -4.4427   -1.0099    3.0283 H   0  0  0  0  0  0  0  0  0  0  0  0
   -6.8527   -1.2897    2.9655 H   0  0  0  0  0  0  0  0  0  0  0  0
   -8.1172   -0.8661    0.8743 H   0  0  0  0  0  0  0  0  0  0  0  0
   -6.9257   -0.1515   -1.1542 H   0  0  0  0  0  0  0  0  0  0  0  0
   -4.8720    0.4701   -2.2945 H   0  0  0  0  0  0  0  0  0  0  0  0
   -2.5117    0.8071   -2.3315 H   0  0  0  0  0  0  0  0  0  0  0  0
    6.7203    2.3461    1.6438 H   0  0  0  0  0  0  0  0  0  0  0  0
    8.1165   -1.6474   -0.7028 H   0  0  0  0  0  0  0  0  0  0  0  0
    5.9546   -2.5909   -1.4975 H   0  0  0  0  0  0  0  0  0  0  0  0
  1  2  1  0
  2  3  1  0
  3  4  2  0
  4  5  1  0
  5  6  1  0
  6  7  2  0
  7  8  1  0
  8  9  2  0
  9 10  1  0
 10 11  2  0
 11 12  1  0
 12 13  2  0
 13 14  1  0
 14 15  2  0
 15 16  1  0
 16 17  2  0
 17 18  1  0
 18 19  2  0
 19 20  1  0
 20 21  2  0
  6 22  1  0
 22 23  1  0
 23 24  1  0
 24 25  2  0
 25 26  1  0
 26 27  2  0
 27 28  1  0
 28 29  2  0
 29 30  1  0
  5  1  2  0
 21  8  1  0
 30 22  2  0
 21  4  1  0
 30 25  1  0
 20 11  1  0
 17 12  1  0
  1 31  1  0
  3 32  1  0
  7 33  1  0
 10 34  1  0
 13 35  1  0
 14 36  1  0
 15 37  1  0
 16 38  1  0
 18 39  1  0
 19 40  1  0
 24 41  1  0
 27 42  1  0
 28 43  1  0
M  END
