
     RDKit          3D

 34 39  0  0  0  0  0  0  0  0999 V2000
   -2.5874   -2.8560   -0.5090 C   0  0  0  0  0  0  0  0  0  0  0  0
   -4.2811   -3.1517   -0.5744 S   0  0  0  0  0  0  0  0  0  0  0  0
   -4.6565   -1.4940   -0.2665 C   0  0  0  0  0  0  0  0  0  0  0  0
   -3.5267   -0.7161   -0.1142 C   0  0  0  0  0  0  0  0  0  0  0  0
   -2.3763   -1.5302   -0.2596 C   0  0  0  0  0  0  0  0  0  0  0  0
   -1.0919   -0.9001   -0.1341 C   0  0  0  0  0  0  0  0  0  0  0  0
    0.1541   -1.5467   -0.2477 C   0  0  0  0  0  0  0  0  0  0  0  0
    1.2027   -0.6539   -0.0744 C   0  0  0  0  0  0  0  0  0  0  0  0
    0.5923    0.9320    0.2188 S   0  0  0  0  0  0  0  0  0  0  0  0
   -1.0687    0.4600    0.1205 C   0  0  0  0  0  0  0  0  0  0  0  0
   -2.2656    1.2513    0.2614 C   0  0  0  0  0  0  0  0  0  0  0  0
   -2.2114    2.6271    0.5192 C   0  0  0  0  0  0  0  0  0  0  0  0
   -3.2977    3.4274    0.6624 N   0  0  0  0  0  0  0  0  0  0  0  0
   -4.5096    2.8448    0.5462 C   0  0  0  0  0  0  0  0  0  0  0  0
   -4.7009    1.4975    0.2930 C   0  0  0  0  0  0  0  0  0  0  0  0
   -3.5613    0.6785    0.1465 C   0  0  0  0  0  0  0  0  0  0  0  0
    2.6311   -0.9451   -0.1203 C   0  0  0  0  0  0  0  0  0  0  0  0
    3.1771   -2.5707   -0.4211 S   0  0  0  0  0  0  0  0  0  0  0  0
    4.8296   -2.1529   -0.3332 C   0  0  0  0  0  0  0  0  0  0  0  0
    4.9899   -0.8181   -0.0825 C   0  0  0  0  0  0  0  0  0  0  0  0
    6.2189   -0.2425    0.0325 N   0  0  0  0  0  0  0  0  0  0  0  0
    6.1070    1.0891    0.2809 C   0  0  0  0  0  0  0  0  0  0  0  0
    4.9001    1.7831    0.4036 C   0  0  0  0  0  0  0  0  0  0  0  0
    3.6642    1.2289    0.2925 N   0  0  0  0  0  0  0  0  0  0  0  0
    3.7309   -0.1134    0.0418 C   0  0  0  0  0  0  0  0  0  0  0  0
   -1.8844   -3.6634   -0.6559 H   0  0  0  0  0  0  0  0  0  0  0  0
   -5.6969   -1.2061   -0.2189 H   0  0  0  0  0  0  0  0  0  0  0  0
    0.2905   -2.6020   -0.4443 H   0  0  0  0  0  0  0  0  0  0  0  0
   -1.2661    3.1535    0.6234 H   0  0  0  0  0  0  0  0  0  0  0  0
   -5.3560    3.5156    0.6667 H   0  0  0  0  0  0  0  0  0  0  0  0
   -5.7068    1.1043    0.2134 H   0  0  0  0  0  0  0  0  0  0  0  0
    5.6017   -2.8966   -0.4677 H   0  0  0  0  0  0  0  0  0  0  0  0
    7.0517    1.6154    0.3850 H   0  0  0  0  0  0  0  0  0  0  0  0
    4.9033    2.8511    0.6033 H   0  0  0  0  0  0  0  0  0  0  0  0
  1  2  1  0
  2  3  1  0
  3  4  2  0
  4  5  1  0
  5  6  1  0
  6  7  1  0
  7  8  2  0
  8  9  1  0
  9 10  1  0
 10 11  1  0
 11 12  2  0
 12 13  1  0
 13 14  2  0
 14 15  1  0
 15 16  2  0
  8 17  1  0
 17 18  1  0
 18 19  1  0
 19 20  2  0
 20 21  1  0
 21 22  2  0
 22 23  1  0
 23 24  2  0
 24 25  1  0
  5  1  2  0
 10  6  2  0
 16 11  1  0
 25 17  2  0
 16  4  1  0
 25 20  1  0
  1 26  1  0
  3 27  1  0
  7 28  1  0
 12 29  1  0
 14 30  1  0
 15 31  1  0
 19 32  1  0
 22 33  1  0
 23 34  1  0
M  END
