
     RDKit          3D

 33 38  0  0  0  0  0  0  0  0999 V2000
    1.5793   -3.0504   -0.6827 C   0  0  0  0  0  0  0  0  0  0  0  0
    0.2127   -3.9438   -1.1833 S   0  0  0  0  0  0  0  0  0  0  0  0
   -0.8077   -2.5851   -0.9803 C   0  0  0  0  0  0  0  0  0  0  0  0
   -0.1601   -1.4909   -0.4458 C   0  0  0  0  0  0  0  0  0  0  0  0
    1.2673   -1.7444   -0.3644 C   0  0  0  0  0  0  0  0  0  0  0  0
    2.2501   -0.7846   -0.0139 C   0  0  0  0  0  0  0  0  0  0  0  0
    3.6542   -1.0843    0.0911 C   0  0  0  0  0  0  0  0  0  0  0  0
    4.6235   -0.1318    0.4034 C   0  0  0  0  0  0  0  0  0  0  0  0
    4.1420    1.1711    0.6150 C   0  0  0  0  0  0  0  0  0  0  0  0
    4.9221    2.2175    0.9258 N   0  0  0  0  0  0  0  0  0  0  0  0
    3.9212    3.5218    1.0882 S   0  0  0  0  0  0  0  0  0  0  0  0
    2.4616    2.8183    0.7707 N   0  0  0  0  0  0  0  0  0  0  0  0
    2.6666    1.5135    0.5107 C   0  0  0  0  0  0  0  0  0  0  0  0
    1.6511    0.5184    0.1833 C   0  0  0  0  0  0  0  0  0  0  0  0
    0.1843    0.7792    0.0756 C   0  0  0  0  0  0  0  0  0  0  0  0
   -0.3694    2.0602    0.1810 C   0  0  0  0  0  0  0  0  0  0  0  0
   -1.6812    2.3990    0.1235 N   0  0  0  0  0  0  0  0  0  0  0  0
   -2.5839    1.4289    0.0239 C   0  0  0  0  0  0  0  0  0  0  0  0
   -3.9187    1.8132    0.0486 C   0  0  0  0  0  0  0  0  0  0  0  0
   -4.9553    0.8849    0.0196 C   0  0  0  0  0  0  0  0  0  0  0  0
   -4.6476   -0.4622   -0.0095 C   0  0  0  0  0  0  0  0  0  0  0  0
   -3.3086   -0.8600   -0.0455 C   0  0  0  0  0  0  0  0  0  0  0  0
   -2.2320    0.0709   -0.0796 C   0  0  0  0  0  0  0  0  0  0  0  0
   -0.8033   -0.2388   -0.1538 C   0  0  0  0  0  0  0  0  0  0  0  0
    2.5360   -3.5513   -0.6910 H   0  0  0  0  0  0  0  0  0  0  0  0
   -1.8278   -2.7002   -1.3062 H   0  0  0  0  0  0  0  0  0  0  0  0
    4.0116   -2.0989   -0.0765 H   0  0  0  0  0  0  0  0  0  0  0  0
    5.6766   -0.3733    0.4790 H   0  0  0  0  0  0  0  0  0  0  0  0
    0.2455    2.9448    0.3049 H   0  0  0  0  0  0  0  0  0  0  0  0
   -4.1566    2.8733    0.1100 H   0  0  0  0  0  0  0  0  0  0  0  0
   -5.9887    1.2178    0.0499 H   0  0  0  0  0  0  0  0  0  0  0  0
   -5.4394   -1.2066    0.0128 H   0  0  0  0  0  0  0  0  0  0  0  0
   -3.1252   -1.9262    0.0156 H   0  0  0  0  0  0  0  0  0  0  0  0
  1  2  1  0
  2  3  1  0
  3  4  2  0
  4  5  1  0
  5  6  1  0
  6  7  1  0
  7  8  2  0
  8  9  1  0
  9 10  2  0
 10 11  1  0
 11 12  1  0
 12 13  2  0
 13 14  1  0
 14 15  1  0
 15 16  2  0
 16 17  1  0
 17 18  2  0
 18 19  1  0
 19 20  2  0
 20 21  1  0
 21 22  2  0
 22 23  1  0
 23 24  2  0
  5  1  2  0
 14  6  2  0
 24 15  1  0
 24  4  1  0
 13  9  1  0
 23 18  1  0
  1 25  1  0
  3 26  1  0
  7 27  1  0
  8 28  1  0
 16 29  1  0
 19 30  1  0
 20 31  1  0
 21 32  1  0
 22 33  1  0
M  END
