
     RDKit          3D

 38 43  0  0  0  0  0  0  0  0999 V2000
    6.7813    0.1303    1.0734 C   0  0  0  0  0  0  0  0  0  0  0  0
    6.1797    0.9157    2.4929 S   0  0  0  0  0  0  0  0  0  0  0  0
    4.5372    0.7586    1.9843 C   0  0  0  0  0  0  0  0  0  0  0  0
    4.5108    0.1267    0.7774 C   0  0  0  0  0  0  0  0  0  0  0  0
    5.7638   -0.2462    0.2267 C   0  0  0  0  0  0  0  0  0  0  0  0
    6.0042   -0.9003   -0.9889 C   0  0  0  0  0  0  0  0  0  0  0  0
    4.8397   -1.2125   -1.7322 C   0  0  0  0  0  0  0  0  0  0  0  0
    3.5656   -0.8638   -1.2300 C   0  0  0  0  0  0  0  0  0  0  0  0
    2.2936   -1.0388   -1.7255 N   0  0  0  0  0  0  0  0  0  0  0  0
    1.3767   -0.5067   -0.8281 C   0  0  0  0  0  0  0  0  0  0  0  0
   -0.0427   -0.3741   -0.7564 C   0  0  0  0  0  0  0  0  0  0  0  0
   -1.0623   -0.7724   -1.6474 C   0  0  0  0  0  0  0  0  0  0  0  0
   -2.4028   -0.5182   -1.3321 C   0  0  0  0  0  0  0  0  0  0  0  0
   -2.7649    0.1260   -0.1446 C   0  0  0  0  0  0  0  0  0  0  0  0
   -1.7485    0.5224    0.7430 C   0  0  0  0  0  0  0  0  0  0  0  0
   -0.3946    0.2706    0.4315 C   0  0  0  0  0  0  0  0  0  0  0  0
    0.9708    0.6950    1.4102 S   0  0  0  0  0  0  0  0  0  0  0  0
    2.0465    0.0143    0.2499 C   0  0  0  0  0  0  0  0  0  0  0  0
    3.3957   -0.2202   -0.0254 C   0  0  0  0  0  0  0  0  0  0  0  0
   -4.1797    0.3840    0.1728 C   0  0  0  0  0  0  0  0  0  0  0  0
   -4.7426   -0.0601    1.3811 C   0  0  0  0  0  0  0  0  0  0  0  0
   -6.0851    0.1836    1.6832 C   0  0  0  0  0  0  0  0  0  0  0  0
   -6.8879    0.8774    0.7814 C   0  0  0  0  0  0  0  0  0  0  0  0
   -6.3497    1.3274   -0.4215 C   0  0  0  0  0  0  0  0  0  0  0  0
   -5.0073    1.0820   -0.7227 C   0  0  0  0  0  0  0  0  0  0  0  0
    7.8475   -0.0034    0.9544 H   0  0  0  0  0  0  0  0  0  0  0  0
    3.7345    1.1359    2.6003 H   0  0  0  0  0  0  0  0  0  0  0  0
    6.9926   -1.1569   -1.3518 H   0  0  0  0  0  0  0  0  0  0  0  0
    4.9344   -1.7209   -2.6885 H   0  0  0  0  0  0  0  0  0  0  0  0
    2.0286   -1.4785   -2.5970 H   0  0  0  0  0  0  0  0  0  0  0  0
   -0.8168   -1.2785   -2.5768 H   0  0  0  0  0  0  0  0  0  0  0  0
   -3.1727   -0.8452   -2.0295 H   0  0  0  0  0  0  0  0  0  0  0  0
   -1.9993    1.0360    1.6687 H   0  0  0  0  0  0  0  0  0  0  0  0
   -4.1358   -0.6128    2.0958 H   0  0  0  0  0  0  0  0  0  0  0  0
   -6.5022   -0.1707    2.6223 H   0  0  0  0  0  0  0  0  0  0  0  0
   -7.9317    1.0682    1.0165 H   0  0  0  0  0  0  0  0  0  0  0  0
   -6.9724    1.8729   -1.1257 H   0  0  0  0  0  0  0  0  0  0  0  0
   -4.6041    1.4531   -1.6628 H   0  0  0  0  0  0  0  0  0  0  0  0
  1  2  1  0
  2  3  1  0
  3  4  2  0
  4  5  1  0
  5  6  1  0
  6  7  2  0
  7  8  1  0
  8  9  1  0
  9 10  1  0
 10 11  1  0
 11 12  2  0
 12 13  1  0
 13 14  2  0
 14 15  1  0
 15 16  2  0
 16 17  1  0
 17 18  1  0
 18 19  1  0
 14 20  1  0
 20 21  2  0
 21 22  1  0
 22 23  2  0
 23 24  1  0
 24 25  2  0
  5  1  2  0
 19  8  2  0
 25 20  1  0
 19  4  1  0
 18 10  2  0
 16 11  1  0
  1 26  1  0
  3 27  1  0
  6 28  1  0
  7 29  1  0
  9 30  1  0
 12 31  1  0
 13 32  1  0
 15 33  1  0
 21 34  1  0
 22 35  1  0
 23 36  1  0
 24 37  1  0
 25 38  1  0
M  END
