
     RDKit          3D

 48 55  0  0  0  0  0  0  0  0999 V2000
   -7.1785   -0.9717   -1.9412 C   0  0  0  0  0  0  0  0  0  0  0  0
   -6.4262   -0.3028   -3.3274 S   0  0  0  0  0  0  0  0  0  0  0  0
   -4.9228   -0.1375   -2.5098 C   0  0  0  0  0  0  0  0  0  0  0  0
   -5.0058   -0.4623   -1.1743 C   0  0  0  0  0  0  0  0  0  0  0  0
   -6.2969   -1.0510   -0.8909 C   0  0  0  0  0  0  0  0  0  0  0  0
   -6.6506   -1.6768    0.2953 C   0  0  0  0  0  0  0  0  0  0  0  0
   -5.5496   -1.7617    1.1651 C   0  0  0  0  0  0  0  0  0  0  0  0
   -4.2482   -1.2001    0.9062 C   0  0  0  0  0  0  0  0  0  0  0  0
   -3.2219   -1.4459    1.8097 C   0  0  0  0  0  0  0  0  0  0  0  0
   -1.9442   -1.0232    1.6898 N   0  0  0  0  0  0  0  0  0  0  0  0
   -1.6395   -0.1998    0.6579 C   0  0  0  0  0  0  0  0  0  0  0  0
   -0.2657    0.2101    0.6450 C   0  0  0  0  0  0  0  0  0  0  0  0
    1.0440   -0.2763    1.6813 S   0  0  0  0  0  0  0  0  0  0  0  0
    2.1837    0.7156    0.8683 C   0  0  0  0  0  0  0  0  0  0  0  0
    1.6101    1.4344   -0.1611 C   0  0  0  0  0  0  0  0  0  0  0  0
    0.2411    1.1249   -0.2600 C   0  0  0  0  0  0  0  0  0  0  0  0
   -0.6929    1.7146   -1.1658 C   0  0  0  0  0  0  0  0  0  0  0  0
   -0.3920    2.7182   -2.0418 C   0  0  0  0  0  0  0  0  0  0  0  0
   -1.8401    3.2423   -2.8002 S   0  0  0  0  0  0  0  0  0  0  0  0
   -2.7925    2.1144   -1.9050 C   0  0  0  0  0  0  0  0  0  0  0  0
   -2.0375    1.2578   -1.1291 C   0  0  0  0  0  0  0  0  0  0  0  0
   -2.5935    0.2238   -0.3062 C   0  0  0  0  0  0  0  0  0  0  0  0
   -3.9086   -0.4128   -0.2446 C   0  0  0  0  0  0  0  0  0  0  0  0
    3.5802    0.7260    1.3169 C   0  0  0  0  0  0  0  0  0  0  0  0
    3.9043    1.5095    2.4372 C   0  0  0  0  0  0  0  0  0  0  0  0
    5.2152    1.5830    2.8951 C   0  0  0  0  0  0  0  0  0  0  0  0
    6.2186    0.8775    2.2357 C   0  0  0  0  0  0  0  0  0  0  0  0
    5.9283    0.0866    1.1133 C   0  0  0  0  0  0  0  0  0  0  0  0
    6.9555   -0.6178    0.4631 C   0  0  0  0  0  0  0  0  0  0  0  0
    6.6891   -1.4129   -0.6505 C   0  0  0  0  0  0  0  0  0  0  0  0
    5.3900   -1.5165   -1.1287 C   0  0  0  0  0  0  0  0  0  0  0  0
    4.3576   -0.8222   -0.4943 C   0  0  0  0  0  0  0  0  0  0  0  0
    4.5959   -0.0026    0.6358 C   0  0  0  0  0  0  0  0  0  0  0  0
   -8.2064   -1.3042   -1.9928 H   0  0  0  0  0  0  0  0  0  0  0  0
   -4.0689    0.1770   -3.0898 H   0  0  0  0  0  0  0  0  0  0  0  0
   -7.6113   -2.1229    0.5152 H   0  0  0  0  0  0  0  0  0  0  0  0
   -5.7028   -2.3115    2.0968 H   0  0  0  0  0  0  0  0  0  0  0  0
   -3.3914   -2.0525    2.6977 H   0  0  0  0  0  0  0  0  0  0  0  0
    2.1671    2.1286   -0.7774 H   0  0  0  0  0  0  0  0  0  0  0  0
    0.5491    3.2040   -2.2577 H   0  0  0  0  0  0  0  0  0  0  0  0
   -3.8649    2.1829   -2.0085 H   0  0  0  0  0  0  0  0  0  0  0  0
    3.1285    2.0680    2.9574 H   0  0  0  0  0  0  0  0  0  0  0  0
    5.4559    2.1896    3.7641 H   0  0  0  0  0  0  0  0  0  0  0  0
    7.2382    0.9484    2.6093 H   0  0  0  0  0  0  0  0  0  0  0  0
    7.9799   -0.5536    0.8244 H   0  0  0  0  0  0  0  0  0  0  0  0
    7.4956   -1.9527   -1.1395 H   0  0  0  0  0  0  0  0  0  0  0  0
    5.1737   -2.1397   -1.9925 H   0  0  0  0  0  0  0  0  0  0  0  0
    3.3510   -0.9358   -0.8914 H   0  0  0  0  0  0  0  0  0  0  0  0
  1  2  1  0
  2  3  1  0
  3  4  2  0
  4  5  1  0
  5  6  1  0
  6  7  2  0
  7  8  1  0
  8  9  2  0
  9 10  1  0
 10 11  2  0
 11 12  1  0
 12 13  1  0
 13 14  1  0
 14 15  2  0
 15 16  1  0
 16 17  1  0
 17 18  2  0
 18 19  1  0
 19 20  1  0
 20 21  2  0
 21 22  1  0
 22 23  2  0
 14 24  1  0
 24 25  2  0
 25 26  1  0
 26 27  2  0
 27 28  1  0
 28 29  2  0
 29 30  1  0
 30 31  2  0
 31 32  1  0
 32 33  2  0
  5  1  2  0
 23  8  1  0
 33 24  1  0
 23  4  1  0
 33 28  1  0
 22 11  1  0
 16 12  2  0
 21 17  1  0
  1 34  1  0
  3 35  1  0
  6 36  1  0
  7 37  1  0
  9 38  1  0
 15 39  1  0
 18 40  1  0
 20 41  1  0
 25 42  1  0
 26 43  1  0
 27 44  1  0
 29 45  1  0
 30 46  1  0
 31 47  1  0
 32 48  1  0
M  END
