
     RDKit          3D

 45 51  0  0  0  0  0  0  0  0999 V2000
   -6.4967    0.6965   -2.2957 Si  0  0  0  0  0  4  0  0  0  0  0  0
   -6.7908    0.3532   -0.4863 C   0  0  0  0  0  0  0  0  0  0  0  0
   -5.6265    0.1722    0.1660 C   0  0  0  0  0  0  0  0  0  0  0  0
   -5.5458   -0.2108    1.5694 C   0  0  0  0  0  0  0  0  0  0  0  0
   -4.3500   -0.4646    2.1319 C   0  0  0  0  0  0  0  0  0  0  0  0
   -3.1786   -0.2954    1.3327 C   0  0  0  0  0  0  0  0  0  0  0  0
   -1.9015   -0.5241    1.7794 O   0  0  0  0  0  0  0  0  0  0  0  0
   -1.0349   -0.1889    0.7745 C   0  0  0  0  0  0  0  0  0  0  0  0
   -1.7817    0.2622   -0.3025 C   0  0  0  0  0  0  0  0  0  0  0  0
   -1.0176    0.7496   -1.4017 C   0  0  0  0  0  0  0  0  0  0  0  0
   -1.3564    1.3748   -2.5604 C   0  0  0  0  0  0  0  0  0  0  0  0
   -0.2032    1.6446   -3.2537 O   0  0  0  0  0  0  0  0  0  0  0  0
    0.8477    1.2061   -2.4924 C   0  0  0  0  0  0  0  0  0  0  0  0
    0.3897    0.6604   -1.3155 C   0  0  0  0  0  0  0  0  0  0  0  0
    1.1822    0.1571   -0.2590 C   0  0  0  0  0  0  0  0  0  0  0  0
    2.5929    0.0713   -0.1906 C   0  0  0  0  0  0  0  0  0  0  0  0
    3.2243   -0.4357    0.9582 C   0  0  0  0  0  0  0  0  0  0  0  0
    2.4207   -0.8511    2.0376 C   0  0  0  0  0  0  0  0  0  0  0  0
    1.0234   -0.7724    1.9867 C   0  0  0  0  0  0  0  0  0  0  0  0
    0.3897   -0.2715    0.8395 C   0  0  0  0  0  0  0  0  0  0  0  0
    4.6917   -0.5273    1.0325 C   0  0  0  0  0  0  0  0  0  0  0  0
    5.4235   -1.2219    0.0549 C   0  0  0  0  0  0  0  0  0  0  0  0
    6.8166   -1.3088    0.1243 C   0  0  0  0  0  0  0  0  0  0  0  0
    7.5016   -0.7008    1.1731 C   0  0  0  0  0  0  0  0  0  0  0  0
    6.7953   -0.0071    2.1525 C   0  0  0  0  0  0  0  0  0  0  0  0
    5.4021    0.0779    2.0824 C   0  0  0  0  0  0  0  0  0  0  0  0
   -3.1408    0.1295   -0.0076 C   0  0  0  0  0  0  0  0  0  0  0  0
   -4.3960    0.3226   -0.6740 C   0  0  0  0  0  0  0  0  0  0  0  0
   -4.6576    0.5338   -1.9767 C   0  0  0  0  0  0  0  0  0  0  0  0
   -7.0127   -0.3834   -3.1700 H   0  0  0  0  0  0  0  0  0  0  0  0
   -6.8780    2.0755   -2.6828 H   0  0  0  0  0  0  0  0  0  0  0  0
   -7.7877    0.2710   -0.0831 H   0  0  0  0  0  0  0  0  0  0  0  0
   -6.4614   -0.3181    2.1410 H   0  0  0  0  0  0  0  0  0  0  0  0
   -4.2509   -0.7716    3.1660 H   0  0  0  0  0  0  0  0  0  0  0  0
   -2.2572    1.7222   -3.0372 H   0  0  0  0  0  0  0  0  0  0  0  0
    1.8246    1.3768   -2.9222 H   0  0  0  0  0  0  0  0  0  0  0  0
    3.1967    0.4130   -1.0276 H   0  0  0  0  0  0  0  0  0  0  0  0
    2.8863   -1.2563    2.9349 H   0  0  0  0  0  0  0  0  0  0  0  0
    0.4383   -1.1074    2.8404 H   0  0  0  0  0  0  0  0  0  0  0  0
    4.9069   -1.7144   -0.7667 H   0  0  0  0  0  0  0  0  0  0  0  0
    7.3644   -1.8542   -0.6398 H   0  0  0  0  0  0  0  0  0  0  0  0
    8.5850   -0.7678    1.2276 H   0  0  0  0  0  0  0  0  0  0  0  0
    7.3268    0.4709    2.9711 H   0  0  0  0  0  0  0  0  0  0  0  0
    4.8704    0.6338    2.8522 H   0  0  0  0  0  0  0  0  0  0  0  0
   -3.9749    0.5785   -2.8020 H   0  0  0  0  0  0  0  0  0  0  0  0
  1  2  1  0
  2  3  2  0
  3  4  1  0
  4  5  2  0
  5  6  1  0
  6  7  1  0
  7  8  1  0
  8  9  2  0
  9 10  1  0
 10 11  2  0
 11 12  1  0
 12 13  1  0
 13 14  2  0
 14 15  1  0
 15 16  2  0
 16 17  1  0
 17 18  2  0
 18 19  1  0
 19 20  2  0
 17 21  1  0
 21 22  2  0
 22 23  1  0
 23 24  2  0
 24 25  1  0
 25 26  2  0
  9 27  1  0
 27 28  1  0
 28 29  2  0
 29  1  1  0
 28  3  1  0
 27  6  2  0
 20  8  1  0
 26 21  1  0
 14 10  1  0
 20 15  1  0
  1 30  1  0
  1 31  1  0
  2 32  1  0
  4 33  1  0
  5 34  1  0
 11 35  1  0
 13 36  1  0
 16 37  1  0
 18 38  1  0
 19 39  1  0
 22 40  1  0
 23 41  1  0
 24 42  1  0
 25 43  1  0
 26 44  1  0
 29 45  1  0
M  END
