
     RDKit          3D

 43 50  0  0  0  0  0  0  0  0999 V2000
   -7.1052   -0.8599    0.4383 C   0  0  0  0  0  0  0  0  0  0  0  0
   -6.4764   -2.3583   -0.0959 S   0  0  0  0  0  0  0  0  0  0  0  0
   -4.8584   -1.7805   -0.0061 C   0  0  0  0  0  0  0  0  0  0  0  0
   -4.7774   -0.4474    0.3254 C   0  0  0  0  0  0  0  0  0  0  0  0
   -6.0965    0.0436    0.6667 C   0  0  0  0  0  0  0  0  0  0  0  0
   -6.3702    1.2899    1.2008 C   0  0  0  0  0  0  0  0  0  0  0  0
   -5.1776    1.9929    1.4435 C   0  0  0  0  0  0  0  0  0  0  0  0
   -3.8671    1.5514    1.1343 C   0  0  0  0  0  0  0  0  0  0  0  0
   -2.9101    2.3855    1.5219 N   0  0  0  0  0  0  0  0  0  0  0  0
   -1.6143    2.0659    1.2927 C   0  0  0  0  0  0  0  0  0  0  0  0
   -1.1256    0.9573    0.5999 C   0  0  0  0  0  0  0  0  0  0  0  0
    0.3087    0.7598    0.3983 C   0  0  0  0  0  0  0  0  0  0  0  0
    1.3160    1.5700    0.9768 C   0  0  0  0  0  0  0  0  0  0  0  0
    2.6895    1.3542    0.7641 C   0  0  0  0  0  0  0  0  0  0  0  0
    3.1614    0.3192   -0.0512 C   0  0  0  0  0  0  0  0  0  0  0  0
    2.1910   -0.5047   -0.6287 C   0  0  0  0  0  0  0  0  0  0  0  0
    0.8029   -0.2912   -0.4104 C   0  0  0  0  0  0  0  0  0  0  0  0
   -0.1709   -1.1246   -1.0343 C   0  0  0  0  0  0  0  0  0  0  0  0
    0.0970   -2.1386   -1.8787 N   0  0  0  0  0  0  0  0  0  0  0  0
   -1.3500   -2.7316   -2.3984 S   0  0  0  0  0  0  0  0  0  0  0  0
   -2.3771   -1.7598   -1.5529 N   0  0  0  0  0  0  0  0  0  0  0  0
   -1.6466   -0.9280   -0.7908 C   0  0  0  0  0  0  0  0  0  0  0  0
   -2.1525    0.0874    0.1081 C   0  0  0  0  0  0  0  0  0  0  0  0
   -3.5587    0.3209    0.4717 C   0  0  0  0  0  0  0  0  0  0  0  0
    4.6030    0.1237   -0.2448 C   0  0  0  0  0  0  0  0  0  0  0  0
    5.4453    0.4791    0.7895 N   0  0  0  0  0  0  0  0  0  0  0  0
    6.8035    0.3297    0.7023 C   0  0  0  0  0  0  0  0  0  0  0  0
    7.5271   -0.1622   -0.3758 C   0  0  0  0  0  0  0  0  0  0  0  0
    6.7210   -0.5237   -1.4699 C   0  0  0  0  0  0  0  0  0  0  0  0
    7.1770   -1.0141   -2.6336 N   0  0  0  0  0  0  0  0  0  0  0  0
    5.8481   -1.2637   -3.5937 S   0  0  0  0  0  0  0  0  0  0  0  0
    4.6378   -0.7636   -2.5791 N   0  0  0  0  0  0  0  0  0  0  0  0
    5.2189   -0.3830   -1.4256 C   0  0  0  0  0  0  0  0  0  0  0  0
   -8.1703   -0.7415    0.5842 H   0  0  0  0  0  0  0  0  0  0  0  0
   -4.0788   -2.4993   -0.1911 H   0  0  0  0  0  0  0  0  0  0  0  0
   -7.3456    1.6741    1.4658 H   0  0  0  0  0  0  0  0  0  0  0  0
   -5.2679    2.9702    1.9235 H   0  0  0  0  0  0  0  0  0  0  0  0
   -0.9505    2.8253    1.6970 H   0  0  0  0  0  0  0  0  0  0  0  0
    1.0682    2.3987    1.6359 H   0  0  0  0  0  0  0  0  0  0  0  0
    3.4000    2.0204    1.2549 H   0  0  0  0  0  0  0  0  0  0  0  0
    2.4940   -1.3421   -1.2569 H   0  0  0  0  0  0  0  0  0  0  0  0
    7.3336    0.6446    1.6014 H   0  0  0  0  0  0  0  0  0  0  0  0
    8.6035   -0.2530   -0.3791 H   0  0  0  0  0  0  0  0  0  0  0  0
  1  2  1  0
  2  3  1  0
  3  4  2  0
  4  5  1  0
  5  6  1  0
  6  7  2  0
  7  8  1  0
  8  9  2  0
  9 10  1  0
 10 11  2  0
 11 12  1  0
 12 13  2  0
 13 14  1  0
 14 15  2  0
 15 16  1  0
 16 17  2  0
 17 18  1  0
 18 19  2  0
 19 20  1  0
 20 21  1  0
 21 22  2  0
 22 23  1  0
 23 24  2  0
 15 25  1  0
 25 26  2  0
 26 27  1  0
 27 28  2  0
 28 29  1  0
 29 30  2  0
 30 31  1  0
 31 32  1  0
 32 33  2  0
  5  1  2  0
 24  8  1  0
 33 25  1  0
 24  4  1  0
 33 29  1  0
 23 11  1  0
 17 12  1  0
 22 18  1  0
  1 34  1  0
  3 35  1  0
  6 36  1  0
  7 37  1  0
 10 38  1  0
 13 39  1  0
 14 40  1  0
 16 41  1  0
 27 42  1  0
 28 43  1  0
M  END
