
     RDKit          3D

 37 42  0  0  0  0  0  0  0  0999 V2000
    7.0610    0.4391   -0.3078 C   0  0  0  0  0  0  0  0  0  0  0  0
    6.7321    1.2750   -1.7856 S   0  0  0  0  0  0  0  0  0  0  0  0
    5.0263    1.1025   -1.5955 C   0  0  0  0  0  0  0  0  0  0  0  0
    4.7778    0.4277   -0.4358 C   0  0  0  0  0  0  0  0  0  0  0  0
    5.9048    0.0353    0.3209 C   0  0  0  0  0  0  0  0  0  0  0  0
    5.9246   -0.6568    1.5282 C   0  0  0  0  0  0  0  0  0  0  0  0
    4.6372   -0.9778    2.0039 C   0  0  0  0  0  0  0  0  0  0  0  0
    3.4621   -0.6105    1.2878 C   0  0  0  0  0  0  0  0  0  0  0  0
    1.8130   -0.9082    1.6999 S   0  0  0  0  0  0  0  0  0  0  0  0
    1.2163   -0.1214    0.2903 C   0  0  0  0  0  0  0  0  0  0  0  0
    2.2429    0.3687   -0.4973 C   0  0  0  0  0  0  0  0  0  0  0  0
    3.4875    0.0794    0.0875 C   0  0  0  0  0  0  0  0  0  0  0  0
   -0.1908   -0.0099    0.0049 C   0  0  0  0  0  0  0  0  0  0  0  0
   -1.2865   -0.4636    0.7244 C   0  0  0  0  0  0  0  0  0  0  0  0
   -2.4629   -0.0972    0.0099 C   0  0  0  0  0  0  0  0  0  0  0  0
   -2.0076    0.5673   -1.1187 C   0  0  0  0  0  0  0  0  0  0  0  0
   -2.8317    1.1021   -2.1040 C   0  0  0  0  0  0  0  0  0  0  0  0
   -4.2105    0.9466   -1.9222 C   0  0  0  0  0  0  0  0  0  0  0  0
   -4.7378    0.2837   -0.8012 C   0  0  0  0  0  0  0  0  0  0  0  0
   -6.1217    0.1318   -0.6261 C   0  0  0  0  0  0  0  0  0  0  0  0
   -6.6340   -0.5297    0.4936 C   0  0  0  0  0  0  0  0  0  0  0  0
   -5.7733   -1.0510    1.4576 C   0  0  0  0  0  0  0  0  0  0  0  0
   -4.3933   -0.9147    1.3094 C   0  0  0  0  0  0  0  0  0  0  0  0
   -3.8654   -0.2495    0.1845 C   0  0  0  0  0  0  0  0  0  0  0  0
   -0.6505    0.6215   -1.1252 O   0  0  0  0  0  0  0  0  0  0  0  0
    8.0872    0.2988    0.0031 H   0  0  0  0  0  0  0  0  0  0  0  0
    4.3454    1.5009   -2.3339 H   0  0  0  0  0  0  0  0  0  0  0  0
    6.8220   -0.9331    2.0678 H   0  0  0  0  0  0  0  0  0  0  0  0
    4.5402   -1.5202    2.9428 H   0  0  0  0  0  0  0  0  0  0  0  0
    2.0750    0.8965   -1.4277 H   0  0  0  0  0  0  0  0  0  0  0  0
   -1.2468   -0.9999    1.6617 H   0  0  0  0  0  0  0  0  0  0  0  0
   -2.4208    1.6124   -2.9666 H   0  0  0  0  0  0  0  0  0  0  0  0
   -4.8800    1.3551   -2.6775 H   0  0  0  0  0  0  0  0  0  0  0  0
   -6.8166    0.5289   -1.3631 H   0  0  0  0  0  0  0  0  0  0  0  0
   -7.7094   -0.6378    0.6122 H   0  0  0  0  0  0  0  0  0  0  0  0
   -6.1779   -1.5644    2.3262 H   0  0  0  0  0  0  0  0  0  0  0  0
   -3.7378   -1.3276    2.0713 H   0  0  0  0  0  0  0  0  0  0  0  0
  1  2  1  0
  2  3  1  0
  3  4  2  0
  4  5  1  0
  5  6  1  0
  6  7  2  0
  7  8  1  0
  8  9  1  0
  9 10  1  0
 10 11  2  0
 11 12  1  0
 10 13  1  0
 13 14  2  0
 14 15  1  0
 15 16  2  0
 16 17  1  0
 17 18  2  0
 18 19  1  0
 19 20  2  0
 20 21  1  0
 21 22  2  0
 22 23  1  0
 23 24  2  0
 16 25  1  0
  5  1  2  0
 12  8  2  0
 25 13  1  0
 12  4  1  0
 24 15  1  0
 24 19  1  0
  1 26  1  0
  3 27  1  0
  6 28  1  0
  7 29  1  0
 11 30  1  0
 14 31  1  0
 17 32  1  0
 18 33  1  0
 20 34  1  0
 21 35  1  0
 22 36  1  0
 23 37  1  0
M  END
