
     RDKit          3D

 36 41  0  0  0  0  0  0  0  0999 V2000
    6.3176    1.3891   -0.1816 C   0  0  0  0  0  0  0  0  0  0  0  0
    5.5619    2.8942    0.2106 S   0  0  0  0  0  0  0  0  0  0  0  0
    3.9805    2.2089    0.1385 C   0  0  0  0  0  0  0  0  0  0  0  0
    4.0864    0.8851   -0.1755 C   0  0  0  0  0  0  0  0  0  0  0  0
    5.3944    0.3845   -0.3644 C   0  0  0  0  0  0  0  0  0  0  0  0
    5.7735   -0.9148   -0.6878 C   0  0  0  0  0  0  0  0  0  0  0  0
    4.6787   -1.7908   -0.8311 C   0  0  0  0  0  0  0  0  0  0  0  0
    3.3371   -1.3468   -0.6536 C   0  0  0  0  0  0  0  0  0  0  0  0
    1.8801   -2.2522   -0.7838 S   0  0  0  0  0  0  0  0  0  0  0  0
    0.8624   -0.8995   -0.4127 C   0  0  0  0  0  0  0  0  0  0  0  0
    1.6324    0.2360   -0.1909 C   0  0  0  0  0  0  0  0  0  0  0  0
    3.0033   -0.0450   -0.3321 C   0  0  0  0  0  0  0  0  0  0  0  0
   -0.6116   -1.0453   -0.3651 C   0  0  0  0  0  0  0  0  0  0  0  0
   -1.2785   -2.2470   -0.6079 C   0  0  0  0  0  0  0  0  0  0  0  0
   -2.6290   -2.4339   -0.5768 N   0  0  0  0  0  0  0  0  0  0  0  0
   -3.4170   -1.3918   -0.2906 C   0  0  0  0  0  0  0  0  0  0  0  0
   -4.8214   -1.6051   -0.2626 C   0  0  0  0  0  0  0  0  0  0  0  0
   -5.8091   -0.6298    0.0190 C   0  0  0  0  0  0  0  0  0  0  0  0
   -5.2385    0.6113    0.2764 C   0  0  0  0  0  0  0  0  0  0  0  0
   -5.9903    1.7198    0.5761 C   0  0  0  0  0  0  0  0  0  0  0  0
   -4.9916    3.0930    0.8406 S   0  0  0  0  0  0  0  0  0  0  0  0
   -3.5522    2.1943    0.5517 C   0  0  0  0  0  0  0  0  0  0  0  0
   -3.8241    0.8778    0.2603 C   0  0  0  0  0  0  0  0  0  0  0  0
   -2.8438   -0.1156   -0.0252 C   0  0  0  0  0  0  0  0  0  0  0  0
   -1.4361    0.0423   -0.0663 C   0  0  0  0  0  0  0  0  0  0  0  0
    7.3957    1.3412   -0.2523 H   0  0  0  0  0  0  0  0  0  0  0  0
    3.1084    2.8175    0.3284 H   0  0  0  0  0  0  0  0  0  0  0  0
    6.7959   -1.2461   -0.8214 H   0  0  0  0  0  0  0  0  0  0  0  0
    4.8649   -2.8332   -1.0841 H   0  0  0  0  0  0  0  0  0  0  0  0
    1.2221    1.2051    0.0574 H   0  0  0  0  0  0  0  0  0  0  0  0
   -0.7419   -3.1607   -0.8504 H   0  0  0  0  0  0  0  0  0  0  0  0
   -5.1657   -2.6185   -0.4795 H   0  0  0  0  0  0  0  0  0  0  0  0
   -6.8672   -0.8545    0.0253 H   0  0  0  0  0  0  0  0  0  0  0  0
   -7.0650    1.8112    0.6568 H   0  0  0  0  0  0  0  0  0  0  0  0
   -2.5998    2.7002    0.6169 H   0  0  0  0  0  0  0  0  0  0  0  0
   -1.0124    1.0190    0.1377 H   0  0  0  0  0  0  0  0  0  0  0  0
  1  2  1  0
  2  3  1  0
  3  4  2  0
  4  5  1  0
  5  6  1  0
  6  7  2  0
  7  8  1  0
  8  9  1  0
  9 10  1  0
 10 11  2  0
 11 12  1  0
 10 13  1  0
 13 14  2  0
 14 15  1  0
 15 16  2  0
 16 17  1  0
 17 18  2  0
 18 19  1  0
 19 20  2  0
 20 21  1  0
 21 22  1  0
 22 23  2  0
 23 24  1  0
 24 25  2  0
  5  1  2  0
 12  8  2  0
 25 13  1  0
 12  4  1  0
 24 16  1  0
 23 19  1  0
  1 26  1  0
  3 27  1  0
  6 28  1  0
  7 29  1  0
 11 30  1  0
 14 31  1  0
 17 32  1  0
 18 33  1  0
 20 34  1  0
 22 35  1  0
 25 36  1  0
M  END
