
     RDKit          3D

 40 47  0  0  0  0  0  0  0  0999 V2000
   -6.8297    1.7386    0.7817 C   0  0  0  0  0  0  0  0  0  0  0  0
   -5.9372    2.9881    1.5654 S   0  0  0  0  0  0  0  0  0  0  0  0
   -4.4251    2.2411    1.2003 C   0  0  0  0  0  0  0  0  0  0  0  0
   -4.6398    1.0852    0.5065 C   0  0  0  0  0  0  0  0  0  0  0  0
   -6.0031    0.7732    0.2529 C   0  0  0  0  0  0  0  0  0  0  0  0
   -6.5219   -0.3289   -0.4249 C   0  0  0  0  0  0  0  0  0  0  0  0
   -5.5368   -1.2172   -0.9002 C   0  0  0  0  0  0  0  0  0  0  0  0
   -4.1522   -0.9750   -0.6868 C   0  0  0  0  0  0  0  0  0  0  0  0
   -2.8153   -1.9364   -1.1876 S   0  0  0  0  0  0  0  0  0  0  0  0
   -1.6601   -0.8204   -0.4688 C   0  0  0  0  0  0  0  0  0  0  0  0
   -2.2963    0.2548    0.1351 C   0  0  0  0  0  0  0  0  0  0  0  0
   -1.1451    1.3711    0.8550 S   0  0  0  0  0  0  0  0  0  0  0  0
    0.1914    0.4101    0.3530 C   0  0  0  0  0  0  0  0  0  0  0  0
    1.5727    0.6561    0.5682 C   0  0  0  0  0  0  0  0  0  0  0  0
    2.5851   -0.2231    0.1010 C   0  0  0  0  0  0  0  0  0  0  0  0
    4.0023    0.0183    0.3289 C   0  0  0  0  0  0  0  0  0  0  0  0
    4.7749   -0.9883    0.8614 N   0  0  0  0  0  0  0  0  0  0  0  0
    6.1084   -0.8116    1.1199 C   0  0  0  0  0  0  0  0  0  0  0  0
    6.8625    0.3357    0.9047 C   0  0  0  0  0  0  0  0  0  0  0  0
    6.1183    1.3989    0.3621 C   0  0  0  0  0  0  0  0  0  0  0  0
    6.6072    2.6125    0.0618 N   0  0  0  0  0  0  0  0  0  0  0  0
    5.3408    3.4945   -0.5475 S   0  0  0  0  0  0  0  0  0  0  0  0
    4.1153    2.3814   -0.4523 N   0  0  0  0  0  0  0  0  0  0  0  0
    4.6485    1.2568    0.0615 C   0  0  0  0  0  0  0  0  0  0  0  0
    2.0641   -1.3407   -0.5860 C   0  0  0  0  0  0  0  0  0  0  0  0
    2.8571   -2.3200   -1.1522 C   0  0  0  0  0  0  0  0  0  0  0  0
    1.9435   -3.5523   -1.9328 S   0  0  0  0  0  0  0  0  0  0  0  0
    0.4518   -2.7916   -1.5396 C   0  0  0  0  0  0  0  0  0  0  0  0
    0.6893   -1.6439   -0.8387 C   0  0  0  0  0  0  0  0  0  0  0  0
   -0.2600   -0.6972   -0.3245 C   0  0  0  0  0  0  0  0  0  0  0  0
   -3.6949    0.1327   -0.0086 C   0  0  0  0  0  0  0  0  0  0  0  0
   -7.9096    1.7930    0.7592 H   0  0  0  0  0  0  0  0  0  0  0  0
   -3.5155    2.7184    1.5282 H   0  0  0  0  0  0  0  0  0  0  0  0
   -7.5781   -0.5099   -0.5854 H   0  0  0  0  0  0  0  0  0  0  0  0
   -5.8460   -2.1088   -1.4431 H   0  0  0  0  0  0  0  0  0  0  0  0
    1.8593    1.5521    1.1189 H   0  0  0  0  0  0  0  0  0  0  0  0
    6.5892   -1.6951    1.5409 H   0  0  0  0  0  0  0  0  0  0  0  0
    7.9162    0.4070    1.1323 H   0  0  0  0  0  0  0  0  0  0  0  0
    3.9351   -2.4039   -1.1574 H   0  0  0  0  0  0  0  0  0  0  0  0
   -0.4662   -3.2551   -1.8624 H   0  0  0  0  0  0  0  0  0  0  0  0
  1  2  1  0
  2  3  1  0
  3  4  2  0
  4  5  1  0
  5  6  1  0
  6  7  2  0
  7  8  1  0
  8  9  1  0
  9 10  1  0
 10 11  2  0
 11 12  1  0
 12 13  1  0
 13 14  1  0
 14 15  2  0
 15 16  1  0
 16 17  2  0
 17 18  1  0
 18 19  2  0
 19 20  1  0
 20 21  2  0
 21 22  1  0
 22 23  1  0
 23 24  2  0
 15 25  1  0
 25 26  2  0
 26 27  1  0
 27 28  1  0
 28 29  2  0
 29 30  1  0
 11 31  1  0
  5  1  2  0
 31  8  2  0
 31  4  1  0
 30 10  1  0
 30 13  2  0
 24 16  1  0
 29 25  1  0
 24 20  1  0
  1 32  1  0
  3 33  1  0
  6 34  1  0
  7 35  1  0
 14 36  1  0
 18 37  1  0
 19 38  1  0
 26 39  1  0
 28 40  1  0
M  END
