
     RDKit          3D

 23 24  0  0  0  0  0  0  0  0999 V2000
   -0.1587   -1.8729   -0.1342 C   0  0  0  0  0  0  0  0  0  0  0  0
   -0.1195   -0.3595   -0.0285 C   0  0  0  0  0  0  0  0  0  0  0  0
   -1.1590    0.4228    0.0385 N   0  0  0  0  0  0  0  0  0  0  0  0
   -2.4028   -0.1060    0.1889 N   0  0  0  0  0  0  0  0  0  0  0  0
   -3.5380    0.3900   -0.3955 C   0  0  0  0  0  0  0  0  0  0  0  0
   -4.5904   -0.2996   -0.0176 N   0  0  0  0  0  0  0  0  0  0  0  0
   -4.1624   -1.2352    0.8937 N   0  0  0  0  0  0  0  0  0  0  0  0
   -2.8657   -1.0779    1.0389 C   0  0  0  0  0  0  0  0  0  0  0  0
    1.2287    0.2890   -0.0472 C   0  0  0  0  0  0  0  0  0  0  0  0
    1.3638    1.6237   -0.4392 C   0  0  0  0  0  0  0  0  0  0  0  0
    2.6243    2.2180   -0.4427 C   0  0  0  0  0  0  0  0  0  0  0  0
    3.7114    1.4567   -0.0467 C   0  0  0  0  0  0  0  0  0  0  0  0
    3.6183    0.1684    0.3484 N   0  0  0  0  0  0  0  0  0  0  0  0
    2.3801   -0.3839    0.3450 C   0  0  0  0  0  0  0  0  0  0  0  0
    0.7064   -2.2509   -0.6868 H   0  0  0  0  0  0  0  0  0  0  0  0
   -1.0413   -2.2023   -0.6888 H   0  0  0  0  0  0  0  0  0  0  0  0
   -0.1598   -2.3134    0.8661 H   0  0  0  0  0  0  0  0  0  0  0  0
   -3.5233    1.2232   -1.0806 H   0  0  0  0  0  0  0  0  0  0  0  0
   -2.2386   -1.6108    1.7352 H   0  0  0  0  0  0  0  0  0  0  0  0
    0.4971    2.2049   -0.7442 H   0  0  0  0  0  0  0  0  0  0  0  0
    2.7535    3.2515   -0.7457 H   0  0  0  0  0  0  0  0  0  0  0  0
    4.7141    1.8755   -0.0331 H   0  0  0  0  0  0  0  0  0  0  0  0
    2.3617   -1.4111    0.6958 H   0  0  0  0  0  0  0  0  0  0  0  0
  1  2  1  0
  2  3  2  3
  3  4  1  0
  4  5  1  0
  5  6  2  0
  6  7  1  0
  7  8  2  0
  2  9  1  0
  9 10  2  0
 10 11  1  0
 11 12  2  0
 12 13  1  0
 13 14  2  0
  8  4  1  0
 14  9  1  0
  1 15  1  0
  1 16  1  0
  1 17  1  0
  5 18  1  0
  8 19  1  0
 10 20  1  0
 11 21  1  0
 12 22  1  0
 14 23  1  0
M  END
