
     RDKit          3D

 37 39  0  0  0  0  0  0  0  0999 V2000
   -2.0049   -2.8959    0.7098 C   0  0  0  0  0  0  0  0  0  0  0  0
   -1.6168   -1.4513    0.4692 C   0  0  0  0  0  0  0  0  0  0  0  0
   -0.4838   -1.0021    0.0127 N   0  0  0  0  0  0  0  0  0  0  0  0
    0.5007   -1.8449   -0.4118 N   0  0  0  0  0  0  0  0  0  0  0  0
    0.3787   -3.1604   -0.6603 N   0  0  0  0  0  0  0  0  0  0  0  0
    1.5651   -3.5649   -1.0855 N   0  0  0  0  0  0  0  0  0  0  0  0
    2.4513   -2.5230   -1.1480 N   0  0  0  0  0  0  0  0  0  0  0  0
    1.7978   -1.4503   -0.7520 C   0  0  0  0  0  0  0  0  0  0  0  0
    2.1635   -0.1459   -0.6363 N   0  0  0  0  0  0  0  0  0  0  0  0
    3.4040    0.4497   -0.9259 C   0  0  0  0  0  0  0  0  0  0  0  0
    4.5301   -0.2582   -1.3607 C   0  0  0  0  0  0  0  0  0  0  0  0
    5.7387    0.3955   -1.6276 C   0  0  0  0  0  0  0  0  0  0  0  0
    5.8422    1.7731   -1.4625 C   0  0  0  0  0  0  0  0  0  0  0  0
    4.7370    2.4976   -1.0296 C   0  0  0  0  0  0  0  0  0  0  0  0
    3.5318    1.8402   -0.7638 C   0  0  0  0  0  0  0  0  0  0  0  0
   -2.6481   -0.4256    0.8204 C   0  0  0  0  0  0  0  0  0  0  0  0
   -4.0013   -0.6405    0.5475 C   0  0  0  0  0  0  0  0  0  0  0  0
   -4.9436    0.3380    0.8816 C   0  0  0  0  0  0  0  0  0  0  0  0
   -4.5459    1.5542    1.4435 C   0  0  0  0  0  0  0  0  0  0  0  0
   -5.5037    2.4714    1.8864 N   0  0  0  0  0  0  0  0  0  0  0  0
   -3.1968    1.7403    1.7548 C   0  0  0  0  0  0  0  0  0  0  0  0
   -2.2462    0.7699    1.4236 C   0  0  0  0  0  0  0  0  0  0  0  0
   -2.1901   -3.3960   -0.2445 H   0  0  0  0  0  0  0  0  0  0  0  0
   -1.2163   -3.4091    1.2673 H   0  0  0  0  0  0  0  0  0  0  0  0
   -2.9092   -2.9753    1.3199 H   0  0  0  0  0  0  0  0  0  0  0  0
    1.4416    0.5060   -0.3405 H   0  0  0  0  0  0  0  0  0  0  0  0
    4.4970   -1.3344   -1.5017 H   0  0  0  0  0  0  0  0  0  0  0  0
    6.5975   -0.1793   -1.9649 H   0  0  0  0  0  0  0  0  0  0  0  0
    6.7813    2.2784   -1.6706 H   0  0  0  0  0  0  0  0  0  0  0  0
    4.8096    3.5738   -0.8980 H   0  0  0  0  0  0  0  0  0  0  0  0
    2.6854    2.4333   -0.4269 H   0  0  0  0  0  0  0  0  0  0  0  0
   -4.3425   -1.5567    0.0736 H   0  0  0  0  0  0  0  0  0  0  0  0
   -5.9965    0.1431    0.6929 H   0  0  0  0  0  0  0  0  0  0  0  0
   -6.3801    2.4371    1.3748 H   0  0  0  0  0  0  0  0  0  0  0  0
   -5.1551    3.4196    1.9877 H   0  0  0  0  0  0  0  0  0  0  0  0
   -2.8722    2.6468    2.2594 H   0  0  0  0  0  0  0  0  0  0  0  0
   -1.2003    0.9458    1.6606 H   0  0  0  0  0  0  0  0  0  0  0  0
  1  2  1  0
  2  3  2  3
  3  4  1  0
  4  5  1  0
  5  6  2  0
  6  7  1  0
  7  8  2  0
  8  9  1  0
  9 10  1  0
 10 11  2  0
 11 12  1  0
 12 13  2  0
 13 14  1  0
 14 15  2  0
  2 16  1  0
 16 17  2  0
 17 18  1  0
 18 19  2  0
 19 20  1  0
 19 21  1  0
 21 22  2  0
  8  4  1  0
 15 10  1  0
 22 16  1  0
  1 23  1  0
  1 24  1  0
  1 25  1  0
  9 26  1  0
 11 27  1  0
 12 28  1  0
 13 29  1  0
 14 30  1  0
 15 31  1  0
 17 32  1  0
 18 33  1  0
 20 34  1  0
 20 35  1  0
 21 36  1  0
 22 37  1  0
M  END
