
     RDKit          3D

 40 41  0  0  0  0  0  0  0  0999 V2000
    1.8802   -0.5831    2.6686 C   0  0  0  0  0  0  0  0  0  0  0  0
    2.5154    0.7520    2.3726 C   0  0  0  0  0  0  0  0  0  0  0  0
    2.7049    1.5818    3.2608 O   0  0  0  0  0  0  0  0  0  0  0  0
    2.9773    1.0283    0.9872 C   0  0  0  0  0  0  0  0  0  0  0  0
    2.1276    1.0067   -0.0586 C   0  0  0  0  0  0  0  0  0  0  0  0
    0.7154    0.7970   -0.0245 C   0  0  0  0  0  0  0  0  0  0  0  0
   -0.2161    1.4470    0.8075 C   0  0  0  0  0  0  0  0  0  0  0  0
   -1.4704    0.9526    0.5080 C   0  0  0  0  0  0  0  0  0  0  0  0
   -2.7471    1.2715    1.2105 C   0  0  0  0  0  0  0  0  0  0  0  0
   -1.3375    0.0214   -0.5209 N   0  0  0  0  0  0  0  0  0  0  0  0
   -2.3957   -0.7332   -1.1072 C   0  0  0  0  0  0  0  0  0  0  0  0
   -3.5934   -0.1041   -1.4680 C   0  0  0  0  0  0  0  0  0  0  0  0
   -4.6269   -0.8470   -2.0422 C   0  0  0  0  0  0  0  0  0  0  0  0
   -4.4714   -2.2163   -2.2531 C   0  0  0  0  0  0  0  0  0  0  0  0
   -3.2812   -2.8467   -1.8931 C   0  0  0  0  0  0  0  0  0  0  0  0
   -2.2421   -2.1086   -1.3224 C   0  0  0  0  0  0  0  0  0  0  0  0
    0.0161   -0.0497   -0.8677 C   0  0  0  0  0  0  0  0  0  0  0  0
    0.5346   -0.8635   -2.0112 C   0  0  0  0  0  0  0  0  0  0  0  0
    4.4113    1.3640    0.7151 C   0  0  0  0  0  0  0  0  0  0  0  0
    5.3654    1.4331    1.8808 C   0  0  0  0  0  0  0  0  0  0  0  0
    4.8121    1.5694   -0.4321 O   0  0  0  0  0  0  0  0  0  0  0  0
    0.8295   -0.4404    2.9320 H   0  0  0  0  0  0  0  0  0  0  0  0
    1.9515   -1.2600    1.8131 H   0  0  0  0  0  0  0  0  0  0  0  0
    2.4115   -1.0469    3.5051 H   0  0  0  0  0  0  0  0  0  0  0  0
    2.5369    1.1895   -1.0529 H   0  0  0  0  0  0  0  0  0  0  0  0
   -0.0087    2.1908    1.5688 H   0  0  0  0  0  0  0  0  0  0  0  0
   -3.3240    2.0130    0.6498 H   0  0  0  0  0  0  0  0  0  0  0  0
   -3.3583    0.3778    1.3693 H   0  0  0  0  0  0  0  0  0  0  0  0
   -2.5416    1.6973    2.1992 H   0  0  0  0  0  0  0  0  0  0  0  0
   -3.7254    0.9678   -1.3520 H   0  0  0  0  0  0  0  0  0  0  0  0
   -5.5518   -0.3549   -2.3328 H   0  0  0  0  0  0  0  0  0  0  0  0
   -5.2783   -2.7926   -2.6988 H   0  0  0  0  0  0  0  0  0  0  0  0
   -3.1648   -3.9162   -2.0503 H   0  0  0  0  0  0  0  0  0  0  0  0
   -1.3407   -2.6309   -1.0146 H   0  0  0  0  0  0  0  0  0  0  0  0
   -0.1763   -0.8987   -2.8422 H   0  0  0  0  0  0  0  0  0  0  0  0
    0.7612   -1.8827   -1.6848 H   0  0  0  0  0  0  0  0  0  0  0  0
    1.4577   -0.4345   -2.4141 H   0  0  0  0  0  0  0  0  0  0  0  0
    6.3898    1.5039    1.5032 H   0  0  0  0  0  0  0  0  0  0  0  0
    5.2967    0.5253    2.4857 H   0  0  0  0  0  0  0  0  0  0  0  0
    5.1569    2.3195    2.4851 H   0  0  0  0  0  0  0  0  0  0  0  0
  1  2  1  0
  2  3  2  0
  2  4  1  0
  4  5  2  3
  5  6  1  0
  6  7  1  0
  7  8  2  0
  8  9  1  0
  8 10  1  0
 10 11  1  0
 11 12  2  0
 12 13  1  0
 13 14  2  0
 14 15  1  0
 15 16  2  0
 10 17  1  0
 17 18  1  0
  4 19  1  0
 19 20  1  0
 19 21  2  0
 17  6  2  0
 16 11  1  0
  1 22  1  0
  1 23  1  0
  1 24  1  0
  5 25  1  0
  7 26  1  0
  9 27  1  0
  9 28  1  0
  9 29  1  0
 12 30  1  0
 13 31  1  0
 14 32  1  0
 15 33  1  0
 16 34  1  0
 18 35  1  0
 18 36  1  0
 18 37  1  0
 20 38  1  0
 20 39  1  0
 20 40  1  0
M  END
