
     RDKit          3D

 24 25  0  0  0  0  0  0  0  0999 V2000
    3.2193   -1.3981    2.5385 C   0  0  0  0  0  0  0  0  0  0  0  0
    1.8609   -1.2316    1.9022 C   0  0  0  0  0  0  0  0  0  0  0  0
    1.0585   -2.1679    1.8847 O   0  0  0  0  0  0  0  0  0  0  0  0
    1.5133    0.1013    1.3224 C   0  0  0  0  0  0  0  0  0  0  0  0
    2.1703    1.2552    1.8205 C   0  0  0  0  0  0  0  0  0  0  0  0
    2.7034    2.1953    2.2434 N   0  0  0  0  0  0  0  0  0  0  0  0
    0.6001    0.1830    0.3315 C   0  0  0  0  0  0  0  0  0  0  0  0
    0.1495    1.3744   -0.2708 N   0  0  0  0  0  0  0  0  0  0  0  0
   -1.0189    1.0350   -0.9859 C   0  0  0  0  0  0  0  0  0  0  0  0
   -1.8752    1.8353   -1.7045 C   0  0  0  0  0  0  0  0  0  0  0  0
   -2.9239    1.2023   -2.3807 C   0  0  0  0  0  0  0  0  0  0  0  0
   -3.0744   -0.2008   -2.3439 C   0  0  0  0  0  0  0  0  0  0  0  0
   -2.1795   -1.0059   -1.6306 C   0  0  0  0  0  0  0  0  0  0  0  0
   -1.1693   -0.3707   -0.9490 C   0  0  0  0  0  0  0  0  0  0  0  0
   -0.0946   -0.9060   -0.2206 N   0  0  0  0  0  0  0  0  0  0  0  0
    3.2112   -0.9764    3.5466 H   0  0  0  0  0  0  0  0  0  0  0  0
    3.4595   -2.4640    2.5987 H   0  0  0  0  0  0  0  0  0  0  0  0
    3.9917   -0.9202    1.9296 H   0  0  0  0  0  0  0  0  0  0  0  0
    0.1502    2.2352    0.2602 H   0  0  0  0  0  0  0  0  0  0  0  0
   -1.7422    2.9087   -1.7570 H   0  0  0  0  0  0  0  0  0  0  0  0
   -3.6272    1.7983   -2.9587 H   0  0  0  0  0  0  0  0  0  0  0  0
   -3.8910   -0.6640   -2.8938 H   0  0  0  0  0  0  0  0  0  0  0  0
   -2.2759   -2.0847   -1.6256 H   0  0  0  0  0  0  0  0  0  0  0  0
   -0.2158   -1.7338    0.3581 H   0  0  0  0  0  0  0  0  0  0  0  0
  1  2  1  0
  2  3  2  0
  2  4  1  0
  4  5  1  0
  5  6  3  0
  4  7  2  3
  7  8  1  0
  8  9  1  0
  9 10  2  0
 10 11  1  0
 11 12  2  0
 12 13  1  0
 13 14  2  0
 14 15  1  0
 15  7  1  0
 14  9  1  0
  1 16  1  0
  1 17  1  0
  1 18  1  0
  8 19  1  0
 10 20  1  0
 11 21  1  0
 12 22  1  0
 13 23  1  0
 15 24  1  0
M  END
