
     RDKit          3D

 34 35  0  0  0  0  0  0  0  0999 V2000
   -4.6257   -1.1844    1.2218 C   0  0  0  0  0  0  0  0  0  0  0  0
   -4.0845    0.1185    0.6950 C   0  0  0  0  0  0  0  0  0  0  0  0
   -4.8440    1.0854    0.5999 O   0  0  0  0  0  0  0  0  0  0  0  0
   -2.6653    0.2174    0.3027 C   0  0  0  0  0  0  0  0  0  0  0  0
   -2.1617    1.2416   -0.4928 C   0  0  0  0  0  0  0  0  0  0  0  0
   -2.8402    2.4151   -1.1119 C   0  0  0  0  0  0  0  0  0  0  0  0
   -0.8291    1.0125   -0.6968 N   0  0  0  0  0  0  0  0  0  0  0  0
   -0.4211   -0.1140   -0.0243 C   0  0  0  0  0  0  0  0  0  0  0  0
    0.9401   -0.6298   -0.0608 C   0  0  0  0  0  0  0  0  0  0  0  0
    1.1786   -1.8292   -0.1247 O   0  0  0  0  0  0  0  0  0  0  0  0
    1.8928    0.3709    0.0132 N   0  0  0  0  0  0  0  0  0  0  0  0
    3.2948    0.2242   -0.0639 C   0  0  0  0  0  0  0  0  0  0  0  0
    3.9500   -0.9642   -0.3752 C   0  0  0  0  0  0  0  0  0  0  0  0
    5.3443   -0.9929   -0.4356 C   0  0  0  0  0  0  0  0  0  0  0  0
    6.0437    0.1756   -0.1863 C   0  0  0  0  0  0  0  0  0  0  0  0
    5.4505    1.3494    0.1124 N   0  0  0  0  0  0  0  0  0  0  0  0
    4.0970    1.3428    0.1665 C   0  0  0  0  0  0  0  0  0  0  0  0
   -1.5453   -0.6426    0.6088 C   0  0  0  0  0  0  0  0  0  0  0  0
   -1.5468   -1.8674    1.4639 C   0  0  0  0  0  0  0  0  0  0  0  0
   -4.3256   -1.3224    2.2623 H   0  0  0  0  0  0  0  0  0  0  0  0
   -4.2892   -2.0191    0.6025 H   0  0  0  0  0  0  0  0  0  0  0  0
   -5.7194   -1.1631    1.1791 H   0  0  0  0  0  0  0  0  0  0  0  0
   -3.2028    3.0982   -0.3374 H   0  0  0  0  0  0  0  0  0  0  0  0
   -3.6898    2.0904   -1.7208 H   0  0  0  0  0  0  0  0  0  0  0  0
   -2.1600    2.9760   -1.7614 H   0  0  0  0  0  0  0  0  0  0  0  0
   -0.2355    1.5688   -1.2986 H   0  0  0  0  0  0  0  0  0  0  0  0
    1.5558    1.2919    0.2597 H   0  0  0  0  0  0  0  0  0  0  0  0
    3.4111   -1.8833   -0.5807 H   0  0  0  0  0  0  0  0  0  0  0  0
    5.8693   -1.9115   -0.6743 H   0  0  0  0  0  0  0  0  0  0  0  0
    7.1292    0.1979   -0.2227 H   0  0  0  0  0  0  0  0  0  0  0  0
    3.6646    2.3084    0.4131 H   0  0  0  0  0  0  0  0  0  0  0  0
   -0.5360   -2.1646    1.7578 H   0  0  0  0  0  0  0  0  0  0  0  0
   -2.0969   -1.6905    2.3922 H   0  0  0  0  0  0  0  0  0  0  0  0
   -2.0028   -2.7059    0.9294 H   0  0  0  0  0  0  0  0  0  0  0  0
  1  2  1  0
  2  3  2  0
  2  4  1  0
  4  5  2  0
  5  6  1  0
  5  7  1  0
  7  8  1  0
  8  9  1  0
  9 10  2  0
  9 11  1  0
 11 12  1  0
 12 13  2  0
 13 14  1  0
 14 15  2  0
 15 16  1  0
 16 17  2  0
  8 18  2  0
 18 19  1  0
 18  4  1  0
 17 12  1  0
  1 20  1  0
  1 21  1  0
  1 22  1  0
  6 23  1  0
  6 24  1  0
  6 25  1  0
  7 26  1  0
 11 27  1  0
 13 28  1  0
 14 29  1  0
 15 30  1  0
 17 31  1  0
 19 32  1  0
 19 33  1  0
 19 34  1  0
M  END
