
     RDKit          3D

 39 43  0  0  0  0  0  0  0  0999 V2000
    5.4431   -2.3632    0.2111 C   0  0  0  0  0  0  0  0  0  0  0  0
    6.0568   -1.0362   -0.1719 C   0  0  0  0  0  0  0  0  0  0  0  0
    7.2783   -0.9597   -0.3147 O   0  0  0  0  0  0  0  0  0  0  0  0
    5.1363    0.0895   -0.3518 C   0  0  0  0  0  0  0  0  0  0  0  0
    3.7337    0.0928   -0.2315 C   0  0  0  0  0  0  0  0  0  0  0  0
    3.1416    1.3679   -0.4654 C   0  0  0  0  0  0  0  0  0  0  0  0
    4.1599    2.2674   -0.7754 C   0  0  0  0  0  0  0  0  0  0  0  0
    3.6711    3.5136   -1.0381 C   0  0  0  0  0  0  0  0  0  0  0  0
    1.9568    3.5244   -0.9016 S   0  0  0  0  0  0  0  0  0  0  0  0
    1.8698    1.8483   -0.4711 C   0  0  0  0  0  0  0  0  0  0  0  0
    0.6095    1.2089   -0.1925 C   0  0  0  0  0  0  0  0  0  0  0  0
   -0.6040    1.4287   -0.8221 C   0  0  0  0  0  0  0  0  0  0  0  0
   -1.6845    0.6332   -0.2994 C   0  0  0  0  0  0  0  0  0  0  0  0
   -1.2109   -0.1556    0.7270 C   0  0  0  0  0  0  0  0  0  0  0  0
    0.4376    0.0469    1.0525 S   0  0  0  0  0  0  0  0  0  0  0  0
   -2.1663   -1.1279    1.4825 C   0  0  0  0  0  0  0  0  0  0  0  0
   -1.7153   -2.1520    2.7576 S   0  0  0  0  0  0  0  0  0  0  0  0
   -3.3061   -2.7548    2.8983 C   0  0  0  0  0  0  0  0  0  0  0  0
   -4.1544   -2.1742    1.9796 C   0  0  0  0  0  0  0  0  0  0  0  0
   -3.4996   -1.2104    1.1337 C   0  0  0  0  0  0  0  0  0  0  0  0
   -3.9627   -0.3805    0.0677 C   0  0  0  0  0  0  0  0  0  0  0  0
   -5.4181   -0.4270   -0.3589 C   0  0  0  0  0  0  0  0  0  0  0  0
   -3.0675    0.5292   -0.6391 C   0  0  0  0  0  0  0  0  0  0  0  0
   -3.6454    1.3747   -1.7587 C   0  0  0  0  0  0  0  0  0  0  0  0
    5.8448    1.6499   -0.7762 S   0  0  0  0  0  0  0  0  0  0  0  0
    6.2335   -3.1115    0.3253 H   0  0  0  0  0  0  0  0  0  0  0  0
    4.7604   -2.7023   -0.5726 H   0  0  0  0  0  0  0  0  0  0  0  0
    4.9163   -2.2735    1.1651 H   0  0  0  0  0  0  0  0  0  0  0  0
    3.1681   -0.7979    0.0135 H   0  0  0  0  0  0  0  0  0  0  0  0
    4.2391    4.3952   -1.3024 H   0  0  0  0  0  0  0  0  0  0  0  0
   -0.7165    2.1317   -1.6382 H   0  0  0  0  0  0  0  0  0  0  0  0
   -3.5451   -3.5017    3.6430 H   0  0  0  0  0  0  0  0  0  0  0  0
   -5.2038   -2.4327    1.9195 H   0  0  0  0  0  0  0  0  0  0  0  0
   -5.4972   -0.7366   -1.4056 H   0  0  0  0  0  0  0  0  0  0  0  0
   -5.9990   -1.1399    0.2319 H   0  0  0  0  0  0  0  0  0  0  0  0
   -5.8836    0.5548   -0.2276 H   0  0  0  0  0  0  0  0  0  0  0  0
   -4.0472    0.7338   -2.5496 H   0  0  0  0  0  0  0  0  0  0  0  0
   -2.8934    2.0205   -2.2193 H   0  0  0  0  0  0  0  0  0  0  0  0
   -4.4360    2.0259   -1.3732 H   0  0  0  0  0  0  0  0  0  0  0  0
  1  2  1  0
  2  3  2  0
  2  4  1  0
  4  5  2  0
  5  6  1  0
  6  7  1  0
  7  8  2  0
  8  9  1  0
  9 10  1  0
 10 11  1  0
 11 12  2  0
 12 13  1  0
 13 14  2  0
 14 15  1  0
 14 16  1  0
 16 17  1  0
 17 18  1  0
 18 19  2  0
 19 20  1  0
 20 21  1  0
 21 22  1  0
 21 23  2  0
 23 24  1  0
  7 25  1  0
 25  4  1  0
 10  6  2  0
 15 11  1  0
 20 16  2  0
 23 13  1  0
  1 26  1  0
  1 27  1  0
  1 28  1  0
  5 29  1  0
  8 30  1  0
 12 31  1  0
 18 32  1  0
 19 33  1  0
 22 34  1  0
 22 35  1  0
 22 36  1  0
 24 37  1  0
 24 38  1  0
 24 39  1  0
M  END
