
     RDKit          3D

 39 40  0  0  0  0  0  0  0  0999 V2000
    6.9843    0.4707    1.6741 C   0  0  0  0  0  0  0  0  0  0  0  0
    5.7220    1.2205    1.3379 C   0  0  0  0  0  0  0  0  0  0  0  0
    5.5989    2.4132    1.6087 O   0  0  0  0  0  0  0  0  0  0  0  0
    4.6036    0.4920    0.6682 C   0  0  0  0  0  0  0  0  0  0  0  0
    4.6603   -0.8767    0.3912 C   0  0  0  0  0  0  0  0  0  0  0  0
    3.5815   -1.5108   -0.2382 C   0  0  0  0  0  0  0  0  0  0  0  0
    2.4271   -0.7969   -0.5814 C   0  0  0  0  0  0  0  0  0  0  0  0
    1.3978   -1.5128   -1.2239 N   0  0  0  0  0  0  0  0  0  0  0  0
    0.0919   -1.2002   -1.4794 C   0  0  0  0  0  0  0  0  0  0  0  0
   -0.6844   -2.0738   -2.6757 S   0  0  0  0  0  0  0  0  0  0  0  0
   -0.4787   -0.2371   -0.6986 N   0  0  0  0  0  0  0  0  0  0  0  0
   -1.8581    0.2408   -0.7555 C   0  0  0  0  0  0  0  0  0  0  0  0
   -2.8099   -0.6333    0.0656 C   0  0  0  0  0  0  0  0  0  0  0  0
   -4.2269   -0.1177    0.0128 C   0  0  0  0  0  0  0  0  0  0  0  0
   -5.0687   -0.4783   -1.0509 C   0  0  0  0  0  0  0  0  0  0  0  0
   -6.3739    0.0107   -1.1132 C   0  0  0  0  0  0  0  0  0  0  0  0
   -6.8352    0.8611   -0.1160 C   0  0  0  0  0  0  0  0  0  0  0  0
   -8.0882    1.3308   -0.1765 F   0  0  0  0  0  0  0  0  0  0  0  0
   -6.0154    1.2335    0.9426 C   0  0  0  0  0  0  0  0  0  0  0  0
   -4.7093    0.7462    1.0075 C   0  0  0  0  0  0  0  0  0  0  0  0
    2.3868    0.5755   -0.3313 C   0  0  0  0  0  0  0  0  0  0  0  0
    3.4629    1.2138    0.2971 C   0  0  0  0  0  0  0  0  0  0  0  0
    7.7094    1.1654    2.1098 H   0  0  0  0  0  0  0  0  0  0  0  0
    6.7755   -0.3099    2.4101 H   0  0  0  0  0  0  0  0  0  0  0  0
    7.4272    0.0467    0.7691 H   0  0  0  0  0  0  0  0  0  0  0  0
    5.5272   -1.4764    0.6528 H   0  0  0  0  0  0  0  0  0  0  0  0
    3.6502   -2.5779   -0.4397 H   0  0  0  0  0  0  0  0  0  0  0  0
    1.6751   -2.3889   -1.6557 H   0  0  0  0  0  0  0  0  0  0  0  0
    0.0004   -0.0641    0.1752 H   0  0  0  0  0  0  0  0  0  0  0  0
   -2.1792    0.3042   -1.8008 H   0  0  0  0  0  0  0  0  0  0  0  0
   -1.8463    1.2623   -0.3579 H   0  0  0  0  0  0  0  0  0  0  0  0
   -2.4700   -0.6747    1.1087 H   0  0  0  0  0  0  0  0  0  0  0  0
   -2.7910   -1.6720   -0.2854 H   0  0  0  0  0  0  0  0  0  0  0  0
   -4.7104   -1.1424   -1.8357 H   0  0  0  0  0  0  0  0  0  0  0  0
   -7.0312   -0.2652   -1.9315 H   0  0  0  0  0  0  0  0  0  0  0  0
   -6.3984    1.8999    1.7086 H   0  0  0  0  0  0  0  0  0  0  0  0
   -4.0730    1.0430    1.8382 H   0  0  0  0  0  0  0  0  0  0  0  0
    1.5558    1.1923   -0.6605 H   0  0  0  0  0  0  0  0  0  0  0  0
    3.4105    2.2865    0.4790 H   0  0  0  0  0  0  0  0  0  0  0  0
  1  2  1  0
  2  3  2  0
  2  4  1  0
  4  5  2  0
  5  6  1  0
  6  7  2  0
  7  8  1  0
  8  9  1  0
  9 10  2  0
  9 11  1  0
 11 12  1  0
 12 13  1  0
 13 14  1  0
 14 15  2  0
 15 16  1  0
 16 17  2  0
 17 18  1  0
 17 19  1  0
 19 20  2  0
  7 21  1  0
 21 22  2  0
 22  4  1  0
 20 14  1  0
  1 23  1  0
  1 24  1  0
  1 25  1  0
  5 26  1  0
  6 27  1  0
  8 28  1  0
 11 29  1  0
 12 30  1  0
 12 31  1  0
 13 32  1  0
 13 33  1  0
 15 34  1  0
 16 35  1  0
 19 36  1  0
 20 37  1  0
 21 38  1  0
 22 39  1  0
M  END
