
     RDKit          3D

 40 42  0  0  0  0  0  0  0  0999 V2000
    5.7138    0.4170    2.4934 C   0  0  0  0  0  0  0  0  0  0  0  0
    4.4470    1.1016    2.0499 C   0  0  0  0  0  0  0  0  0  0  0  0
    3.9804    2.0443    2.6856 O   0  0  0  0  0  0  0  0  0  0  0  0
    3.7624    0.6251    0.8103 C   0  0  0  0  0  0  0  0  0  0  0  0
    4.3457   -0.3157   -0.0425 C   0  0  0  0  0  0  0  0  0  0  0  0
    3.6719   -0.7225   -1.1946 C   0  0  0  0  0  0  0  0  0  0  0  0
    2.4097   -0.2033   -1.5023 C   0  0  0  0  0  0  0  0  0  0  0  0
    1.8013    0.7273   -0.6533 C   0  0  0  0  0  0  0  0  0  0  0  0
    0.5162    1.2841   -0.9168 N   0  0  0  0  0  0  0  0  0  0  0  0
    0.1052    2.3974   -0.2456 N   0  0  0  0  0  0  0  0  0  0  0  0
   -1.0690    2.7376   -0.7520 N   0  0  0  0  0  0  0  0  0  0  0  0
   -1.4635    1.8555   -1.7138 N   0  0  0  0  0  0  0  0  0  0  0  0
   -0.5116    0.9509   -1.7940 C   0  0  0  0  0  0  0  0  0  0  0  0
   -0.6732   -0.4607   -2.7845 S   0  0  0  0  0  0  0  0  0  0  0  0
   -1.1103   -1.7655   -1.5993 C   0  0  0  0  0  0  0  0  0  0  0  0
   -1.5805   -1.2478   -0.2546 C   0  0  0  0  0  0  0  0  0  0  0  0
   -0.7704   -1.1337    0.6697 O   0  0  0  0  0  0  0  0  0  0  0  0
   -2.9007   -0.8917   -0.1167 N   0  0  0  0  0  0  0  0  0  0  0  0
   -3.3790   -0.2629    1.1047 C   0  0  0  0  0  0  0  0  0  0  0  0
   -4.7095    0.3664    0.7165 C   0  0  0  0  0  0  0  0  0  0  0  0
   -5.2125   -0.5534   -0.3886 C   0  0  0  0  0  0  0  0  0  0  0  0
   -3.9362   -0.9044   -1.1406 C   0  0  0  0  0  0  0  0  0  0  0  0
    2.4977    1.1488    0.4968 C   0  0  0  0  0  0  0  0  0  0  0  0
    6.5294    0.6534    1.8047 H   0  0  0  0  0  0  0  0  0  0  0  0
    5.5618   -0.6634    2.5629 H   0  0  0  0  0  0  0  0  0  0  0  0
    5.9864    0.7780    3.4902 H   0  0  0  0  0  0  0  0  0  0  0  0
    5.3269   -0.7368    0.1574 H   0  0  0  0  0  0  0  0  0  0  0  0
    4.1370   -1.4418   -1.8669 H   0  0  0  0  0  0  0  0  0  0  0  0
    1.9655   -0.5282   -2.4355 H   0  0  0  0  0  0  0  0  0  0  0  0
   -0.2189   -2.3809   -1.4262 H   0  0  0  0  0  0  0  0  0  0  0  0
   -1.8574   -2.4297   -2.0433 H   0  0  0  0  0  0  0  0  0  0  0  0
   -2.6603    0.4721    1.4820 H   0  0  0  0  0  0  0  0  0  0  0  0
   -3.5124   -1.0504    1.8547 H   0  0  0  0  0  0  0  0  0  0  0  0
   -4.5436    1.3729    0.3130 H   0  0  0  0  0  0  0  0  0  0  0  0
   -5.4020    0.4443    1.5592 H   0  0  0  0  0  0  0  0  0  0  0  0
   -5.6508   -1.4570    0.0522 H   0  0  0  0  0  0  0  0  0  0  0  0
   -5.9639   -0.0831   -1.0288 H   0  0  0  0  0  0  0  0  0  0  0  0
   -3.6952   -0.1395   -1.8849 H   0  0  0  0  0  0  0  0  0  0  0  0
   -3.9924   -1.8809   -1.6291 H   0  0  0  0  0  0  0  0  0  0  0  0
    2.0548    1.8769    1.1787 H   0  0  0  0  0  0  0  0  0  0  0  0
  1  2  1  0
  2  3  2  0
  2  4  1  0
  4  5  2  0
  5  6  1  0
  6  7  2  0
  7  8  1  0
  8  9  1  0
  9 10  1  0
 10 11  2  0
 11 12  1  0
 12 13  2  0
 13 14  1  0
 14 15  1  0
 15 16  1  0
 16 17  2  0
 16 18  1  0
 18 19  1  0
 19 20  1  0
 20 21  1  0
 21 22  1  0
  8 23  2  0
 23  4  1  0
 13  9  1  0
 22 18  1  0
  1 24  1  0
  1 25  1  0
  1 26  1  0
  5 27  1  0
  6 28  1  0
  7 29  1  0
 15 30  1  0
 15 31  1  0
 19 32  1  0
 19 33  1  0
 20 34  1  0
 20 35  1  0
 21 36  1  0
 21 37  1  0
 22 38  1  0
 22 39  1  0
 23 40  1  0
M  END
