
     RDKit          3D

 39 41  0  0  0  0  0  0  0  0999 V2000
    8.4016   -0.2742   -0.6497 C   0  0  0  0  0  0  0  0  0  0  0  0
    6.9168   -0.5120   -0.7737 C   0  0  0  0  0  0  0  0  0  0  0  0
    6.4843   -1.4000   -1.4989 O   0  0  0  0  0  0  0  0  0  0  0  0
    6.1791    0.3436    0.0248 N   0  0  0  0  0  0  0  0  0  0  0  0
    4.7751    0.3970    0.1609 C   0  0  0  0  0  0  0  0  0  0  0  0
    4.2652    1.3484    1.0505 C   0  0  0  0  0  0  0  0  0  0  0  0
    2.8863    1.4837    1.2584 C   0  0  0  0  0  0  0  0  0  0  0  0
    1.9923    0.6505    0.5618 C   0  0  0  0  0  0  0  0  0  0  0  0
    0.6121    0.6709    0.6658 N   0  0  0  0  0  0  0  0  0  0  0  0
    0.0979   -0.2405   -0.1244 C   0  0  0  0  0  0  0  0  0  0  0  0
   -1.2571   -0.4164   -0.2000 N   0  0  0  0  0  0  0  0  0  0  0  0
   -1.9536   -1.3209   -0.9668 C   0  0  0  0  0  0  0  0  0  0  0  0
   -1.4885   -2.1557   -1.7375 O   0  0  0  0  0  0  0  0  0  0  0  0
   -3.4703   -1.2084   -0.7809 C   0  0  0  0  0  0  0  0  0  0  0  0
   -3.8030   -0.1858    0.1550 O   0  0  0  0  0  0  0  0  0  0  0  0
   -5.1328    0.0213    0.3984 C   0  0  0  0  0  0  0  0  0  0  0  0
   -5.4062    1.0432    1.3121 C   0  0  0  0  0  0  0  0  0  0  0  0
   -6.7223    1.3601    1.6519 C   0  0  0  0  0  0  0  0  0  0  0  0
   -7.7762    0.6542    1.0775 C   0  0  0  0  0  0  0  0  0  0  0  0
   -7.5113   -0.3662    0.1659 C   0  0  0  0  0  0  0  0  0  0  0  0
   -6.1925   -0.6840   -0.1742 C   0  0  0  0  0  0  0  0  0  0  0  0
    1.2033   -1.1631   -1.0272 S   0  0  0  0  0  0  0  0  0  0  0  0
    2.5118   -0.2937   -0.3229 C   0  0  0  0  0  0  0  0  0  0  0  0
    3.8961   -0.4379   -0.5389 C   0  0  0  0  0  0  0  0  0  0  0  0
    8.6201    0.7867   -0.4972 H   0  0  0  0  0  0  0  0  0  0  0  0
    8.7909   -0.8533    0.1915 H   0  0  0  0  0  0  0  0  0  0  0  0
    8.8972   -0.5914   -1.5718 H   0  0  0  0  0  0  0  0  0  0  0  0
    6.7039    1.0030    0.5855 H   0  0  0  0  0  0  0  0  0  0  0  0
    4.9309    2.0069    1.6039 H   0  0  0  0  0  0  0  0  0  0  0  0
    2.4997    2.2241    1.9517 H   0  0  0  0  0  0  0  0  0  0  0  0
   -1.7936    0.2064    0.3932 H   0  0  0  0  0  0  0  0  0  0  0  0
   -3.8959   -0.9746   -1.7637 H   0  0  0  0  0  0  0  0  0  0  0  0
   -3.8214   -2.1811   -0.4174 H   0  0  0  0  0  0  0  0  0  0  0  0
   -4.5889    1.5987    1.7654 H   0  0  0  0  0  0  0  0  0  0  0  0
   -6.9229    2.1562    2.3641 H   0  0  0  0  0  0  0  0  0  0  0  0
   -8.8025    0.8982    1.3396 H   0  0  0  0  0  0  0  0  0  0  0  0
   -8.3342   -0.9179   -0.2822 H   0  0  0  0  0  0  0  0  0  0  0  0
   -6.0334   -1.4870   -0.8863 H   0  0  0  0  0  0  0  0  0  0  0  0
    4.2421   -1.1891   -1.2402 H   0  0  0  0  0  0  0  0  0  0  0  0
  1  2  1  0
  2  3  2  0
  2  4  1  0
  4  5  1  0
  5  6  2  0
  6  7  1  0
  7  8  2  0
  8  9  1  0
  9 10  2  0
 10 11  1  0
 11 12  1  0
 12 13  2  0
 12 14  1  0
 14 15  1  0
 15 16  1  0
 16 17  2  0
 17 18  1  0
 18 19  2  0
 19 20  1  0
 20 21  2  0
 10 22  1  0
 22 23  1  0
 23 24  2  0
 24  5  1  0
 23  8  1  0
 21 16  1  0
  1 25  1  0
  1 26  1  0
  1 27  1  0
  4 28  1  0
  6 29  1  0
  7 30  1  0
 11 31  1  0
 14 32  1  0
 14 33  1  0
 17 34  1  0
 18 35  1  0
 19 36  1  0
 20 37  1  0
 21 38  1  0
 24 39  1  0
M  END
