
     RDKit          3D

 35 36  0  0  0  0  0  0  0  0999 V2000
   -6.1798    0.8265   -1.5891 C   0  0  0  0  0  0  0  0  0  0  0  0
   -4.7397    0.4149   -1.4077 C   0  0  0  0  0  0  0  0  0  0  0  0
   -4.0591    0.0795   -2.3694 O   0  0  0  0  0  0  0  0  0  0  0  0
   -4.3508    0.4393   -0.0806 N   0  0  0  0  0  0  0  0  0  0  0  0
   -3.0815    0.1264    0.4499 C   0  0  0  0  0  0  0  0  0  0  0  0
   -2.9484    0.1766    1.8443 C   0  0  0  0  0  0  0  0  0  0  0  0
   -1.7293   -0.1164    2.4583 C   0  0  0  0  0  0  0  0  0  0  0  0
   -0.6259   -0.4637    1.6821 C   0  0  0  0  0  0  0  0  0  0  0  0
   -0.7412   -0.5187    0.2870 C   0  0  0  0  0  0  0  0  0  0  0  0
    0.4137   -0.8719   -0.5835 C   0  0  0  0  0  0  0  0  0  0  0  0
    0.4271   -0.7055   -1.7920 O   0  0  0  0  0  0  0  0  0  0  0  0
    1.4115   -1.4063    0.1614 O   0  0  0  0  0  0  0  0  0  0  0  0
    2.6036   -1.7538   -0.5525 C   0  0  0  0  0  0  0  0  0  0  0  0
    3.6341   -0.6746   -0.3461 C   0  0  0  0  0  0  0  0  0  0  0  0
    3.7267    0.3956   -1.2468 C   0  0  0  0  0  0  0  0  0  0  0  0
    4.6653    1.4089   -1.0475 C   0  0  0  0  0  0  0  0  0  0  0  0
    5.5145    1.3662    0.0567 C   0  0  0  0  0  0  0  0  0  0  0  0
    5.4226    0.3134    0.9656 C   0  0  0  0  0  0  0  0  0  0  0  0
    4.4839   -0.7007    0.7684 C   0  0  0  0  0  0  0  0  0  0  0  0
   -1.9702   -0.2180   -0.3238 C   0  0  0  0  0  0  0  0  0  0  0  0
   -6.3219    1.2114   -2.6031 H   0  0  0  0  0  0  0  0  0  0  0  0
   -6.4533    1.6182   -0.8857 H   0  0  0  0  0  0  0  0  0  0  0  0
   -6.8261   -0.0415   -1.4353 H   0  0  0  0  0  0  0  0  0  0  0  0
   -5.0626    0.6907    0.5935 H   0  0  0  0  0  0  0  0  0  0  0  0
   -3.7927    0.4446    2.4749 H   0  0  0  0  0  0  0  0  0  0  0  0
   -1.6394   -0.0710    3.5409 H   0  0  0  0  0  0  0  0  0  0  0  0
    0.3194   -0.6794    2.1743 H   0  0  0  0  0  0  0  0  0  0  0  0
    2.4281   -1.9396   -1.6192 H   0  0  0  0  0  0  0  0  0  0  0  0
    2.9690   -2.7010   -0.1391 H   0  0  0  0  0  0  0  0  0  0  0  0
    3.0608    0.4460   -2.1072 H   0  0  0  0  0  0  0  0  0  0  0  0
    4.7298    2.2332   -1.7530 H   0  0  0  0  0  0  0  0  0  0  0  0
    6.2443    2.1565    0.2113 H   0  0  0  0  0  0  0  0  0  0  0  0
    6.0804    0.2840    1.8302 H   0  0  0  0  0  0  0  0  0  0  0  0
    4.4165   -1.5112    1.4905 H   0  0  0  0  0  0  0  0  0  0  0  0
   -2.0294   -0.2586   -1.4082 H   0  0  0  0  0  0  0  0  0  0  0  0
  1  2  1  0
  2  3  2  0
  2  4  1  0
  4  5  1  0
  5  6  2  0
  6  7  1  0
  7  8  2  0
  8  9  1  0
  9 10  1  0
 10 11  2  0
 10 12  1  0
 12 13  1  0
 13 14  1  0
 14 15  2  0
 15 16  1  0
 16 17  2  0
 17 18  1  0
 18 19  2  0
  9 20  2  0
 20  5  1  0
 19 14  1  0
  1 21  1  0
  1 22  1  0
  1 23  1  0
  4 24  1  0
  6 25  1  0
  7 26  1  0
  8 27  1  0
 13 28  1  0
 13 29  1  0
 15 30  1  0
 16 31  1  0
 17 32  1  0
 18 33  1  0
 19 34  1  0
 20 35  1  0
M  END
