
     RDKit          3D

 40 46  0  0  0  0  0  0  0  0999 V2000
   -6.5087    0.2225    1.3521 Si  0  0  0  0  0  4  0  0  0  0  0  0
   -6.3366    0.1456   -0.5065 C   0  0  0  0  0  0  0  0  0  0  0  0
   -5.0402    0.1012   -0.8690 C   0  0  0  0  0  0  0  0  0  0  0  0
   -4.5959    0.0365   -2.2549 C   0  0  0  0  0  0  0  0  0  0  0  0
   -3.2822   -0.0054   -2.5434 C   0  0  0  0  0  0  0  0  0  0  0  0
   -2.3520    0.0155   -1.4599 C   0  0  0  0  0  0  0  0  0  0  0  0
   -0.9848   -0.0223   -1.6139 O   0  0  0  0  0  0  0  0  0  0  0  0
   -0.4510    0.0139   -0.3723 C   0  0  0  0  0  0  0  0  0  0  0  0
    1.0250   -0.0051    0.0158 C   0  0  0  0  0  0  0  0  0  0  0  0
    2.1573   -0.0609   -0.7373 N   0  0  0  0  0  0  0  0  0  0  0  0
    3.2712   -0.0539    0.0989 C   0  0  0  0  0  0  0  0  0  0  0  0
    2.7933    0.0085    1.4135 C   0  0  0  0  0  0  0  0  0  0  0  0
    1.4055    0.0371    1.3211 C   0  0  0  0  0  0  0  0  0  0  0  0
    0.3813    0.0995    2.3073 C   0  0  0  0  0  0  0  0  0  0  0  0
    0.6686    0.1435    3.6039 N   0  0  0  0  0  0  0  0  0  0  0  0
   -0.8527    0.2071    4.3283 S   0  0  0  0  0  0  0  0  0  0  0  0
   -1.8559    0.1774    2.9722 N   0  0  0  0  0  0  0  0  0  0  0  0
   -1.0127    0.1178    1.9479 C   0  0  0  0  0  0  0  0  0  0  0  0
   -1.4416    0.0741    0.5775 C   0  0  0  0  0  0  0  0  0  0  0  0
   -2.6730    0.0767   -0.0873 C   0  0  0  0  0  0  0  0  0  0  0  0
   -4.0634    0.1229    0.2653 C   0  0  0  0  0  0  0  0  0  0  0  0
   -4.6459    0.1840    1.4765 C   0  0  0  0  0  0  0  0  0  0  0  0
    4.6562   -0.1047   -0.3791 C   0  0  0  0  0  0  0  0  0  0  0  0
    5.0069   -0.1653   -1.7242 C   0  0  0  0  0  0  0  0  0  0  0  0
    6.3585   -0.2098   -2.0638 C   0  0  0  0  0  0  0  0  0  0  0  0
    7.3161   -0.1928   -1.0580 C   0  0  0  0  0  0  0  0  0  0  0  0
    6.8804   -0.1316    0.2534 C   0  0  0  0  0  0  0  0  0  0  0  0
    5.5789   -0.0875    0.6108 N   0  0  0  0  0  0  0  0  0  0  0  0
   -7.0880    1.5097    1.8060 H   0  0  0  0  0  0  0  0  0  0  0  0
   -7.1463   -0.9968    1.9044 H   0  0  0  0  0  0  0  0  0  0  0  0
   -7.2004    0.1404   -1.1518 H   0  0  0  0  0  0  0  0  0  0  0  0
   -5.3384    0.0227   -3.0456 H   0  0  0  0  0  0  0  0  0  0  0  0
   -2.9165   -0.0538   -3.5617 H   0  0  0  0  0  0  0  0  0  0  0  0
    2.1727   -0.1007   -1.7465 H   0  0  0  0  0  0  0  0  0  0  0  0
    3.4088    0.0291    2.3046 H   0  0  0  0  0  0  0  0  0  0  0  0
   -4.1807    0.2112    2.4443 H   0  0  0  0  0  0  0  0  0  0  0  0
    4.2648   -0.1788   -2.5122 H   0  0  0  0  0  0  0  0  0  0  0  0
    6.6604   -0.2575   -3.1063 H   0  0  0  0  0  0  0  0  0  0  0  0
    8.3748   -0.2263   -1.2889 H   0  0  0  0  0  0  0  0  0  0  0  0
    7.5860   -0.1157    1.0790 H   0  0  0  0  0  0  0  0  0  0  0  0
  1  2  1  0
  2  3  2  0
  3  4  1  0
  4  5  2  0
  5  6  1  0
  6  7  1  0
  7  8  1  0
  8  9  1  0
  9 10  1  0
 10 11  1  0
 11 12  2  0
 12 13  1  0
 13 14  1  0
 14 15  2  0
 15 16  1  0
 16 17  1  0
 17 18  2  0
 18 19  1  0
 19 20  1  0
 20 21  1  0
 21 22  2  0
 11 23  1  0
 23 24  2  0
 24 25  1  0
 25 26  2  0
 26 27  1  0
 27 28  2  0
 22  1  1  0
 28 23  1  0
 21  3  1  0
 20  6  2  0
 19  8  2  0
 13  9  2  0
 18 14  1  0
  1 29  1  0
  1 30  1  0
  2 31  1  0
  4 32  1  0
  5 33  1  0
 10 34  1  0
 12 35  1  0
 22 36  1  0
 24 37  1  0
 25 38  1  0
 26 39  1  0
 27 40  1  0
M  END
