
     RDKit          3D

 40 41  0  0  0  0  0  0  0  0999 V2000
    5.3702   -0.1889    1.5753 C   0  0  0  0  0  0  0  0  0  0  0  0
    4.4152    0.1417    0.4131 C   0  0  0  0  0  0  0  0  0  0  0  0
    4.7503   -0.7810   -0.7690 C   0  0  0  0  0  0  0  0  0  0  0  0
    4.6242    1.6110    0.0149 C   0  0  0  0  0  0  0  0  0  0  0  0
    2.9522   -0.0845    0.8679 C   0  0  0  0  0  0  0  0  0  0  0  0
    2.6946   -0.4704    2.0051 O   0  0  0  0  0  0  0  0  0  0  0  0
    2.0139    0.1881   -0.1152 N   0  0  0  0  0  0  0  0  0  0  0  0
    0.6105    0.0837   -0.0227 C   0  0  0  0  0  0  0  0  0  0  0  0
   -0.1325    0.4168   -1.1560 C   0  0  0  0  0  0  0  0  0  0  0  0
   -1.5337    0.3392   -1.1455 C   0  0  0  0  0  0  0  0  0  0  0  0
   -2.2487   -0.0706   -0.0124 C   0  0  0  0  0  0  0  0  0  0  0  0
   -3.6205   -0.1448   -0.0042 N   0  0  0  0  0  0  0  0  0  0  0  0
   -4.4648    0.0463   -1.1805 C   0  0  0  0  0  0  0  0  0  0  0  0
   -5.8395   -0.4414   -0.7299 C   0  0  0  0  0  0  0  0  0  0  0  0
   -5.8482   -0.1192    0.7538 C   0  0  0  0  0  0  0  0  0  0  0  0
   -4.4188   -0.4395    1.1838 C   0  0  0  0  0  0  0  0  0  0  0  0
   -1.4790   -0.3990    1.1124 C   0  0  0  0  0  0  0  0  0  0  0  0
   -0.0758   -0.3259    1.1138 C   0  0  0  0  0  0  0  0  0  0  0  0
    5.1709    0.4463    2.4462 H   0  0  0  0  0  0  0  0  0  0  0  0
    6.4167   -0.0391    1.2865 H   0  0  0  0  0  0  0  0  0  0  0  0
    5.2592   -1.2311    1.8965 H   0  0  0  0  0  0  0  0  0  0  0  0
    5.8097   -0.7085   -1.0396 H   0  0  0  0  0  0  0  0  0  0  0  0
    4.5357   -1.8272   -0.5224 H   0  0  0  0  0  0  0  0  0  0  0  0
    4.1690   -0.5324   -1.6633 H   0  0  0  0  0  0  0  0  0  0  0  0
    4.3190    2.2835    0.8248 H   0  0  0  0  0  0  0  0  0  0  0  0
    5.6768    1.8132   -0.2132 H   0  0  0  0  0  0  0  0  0  0  0  0
    4.0416    1.8846   -0.8712 H   0  0  0  0  0  0  0  0  0  0  0  0
    2.3635    0.5003   -1.0103 H   0  0  0  0  0  0  0  0  0  0  0  0
    0.3565    0.7449   -2.0689 H   0  0  0  0  0  0  0  0  0  0  0  0
   -2.0580    0.6199   -2.0543 H   0  0  0  0  0  0  0  0  0  0  0  0
   -4.1243   -0.5341   -2.0447 H   0  0  0  0  0  0  0  0  0  0  0  0
   -4.5025    1.1085   -1.4479 H   0  0  0  0  0  0  0  0  0  0  0  0
   -6.6547    0.0408   -1.2764 H   0  0  0  0  0  0  0  0  0  0  0  0
   -5.9210   -1.5252   -0.8770 H   0  0  0  0  0  0  0  0  0  0  0  0
   -6.5921   -0.6947    1.3115 H   0  0  0  0  0  0  0  0  0  0  0  0
   -6.0560    0.9473    0.9031 H   0  0  0  0  0  0  0  0  0  0  0  0
   -4.1381    0.1756    2.0455 H   0  0  0  0  0  0  0  0  0  0  0  0
   -4.3254   -1.4994    1.4469 H   0  0  0  0  0  0  0  0  0  0  0  0
   -1.9564   -0.7341    2.0290 H   0  0  0  0  0  0  0  0  0  0  0  0
    0.4401   -0.6010    2.0278 H   0  0  0  0  0  0  0  0  0  0  0  0
  1  2  1  0
  2  3  1  0
  2  4  1  0
  2  5  1  0
  5  6  2  0
  5  7  1  0
  7  8  1  0
  8  9  2  0
  9 10  1  0
 10 11  2  0
 11 12  1  0
 12 13  1  0
 13 14  1  0
 14 15  1  0
 15 16  1  0
 11 17  1  0
 17 18  2  0
 18  8  1  0
 16 12  1  0
  1 19  1  0
  1 20  1  0
  1 21  1  0
  3 22  1  0
  3 23  1  0
  3 24  1  0
  4 25  1  0
  4 26  1  0
  4 27  1  0
  7 28  1  0
  9 29  1  0
 10 30  1  0
 13 31  1  0
 13 32  1  0
 14 33  1  0
 14 34  1  0
 15 35  1  0
 15 36  1  0
 16 37  1  0
 16 38  1  0
 17 39  1  0
 18 40  1  0
M  END
