
     RDKit          3D

 31 31  0  0  0  0  0  0  0  0999 V2000
   -3.2517   -0.7682   -1.0743 C   0  0  0  0  0  0  0  0  0  0  0  0
   -2.4653   -0.8580    0.2513 C   0  0  0  0  0  0  0  0  0  0  0  0
   -3.2335   -0.0171    1.2960 C   0  0  0  0  0  0  0  0  0  0  0  0
   -2.4724   -2.3200    0.7480 C   0  0  0  0  0  0  0  0  0  0  0  0
   -1.0156   -0.3956    0.0251 C   0  0  0  0  0  0  0  0  0  0  0  0
   -0.1947   -1.0682   -0.8983 C   0  0  0  0  0  0  0  0  0  0  0  0
    1.1268   -0.6698   -1.1244 C   0  0  0  0  0  0  0  0  0  0  0  0
    1.6718    0.4110   -0.4362 C   0  0  0  0  0  0  0  0  0  0  0  0
    2.9705    0.6958   -0.7516 O   0  0  0  0  0  0  0  0  0  0  0  0
    3.5878    1.7616   -0.0424 C   0  0  0  0  0  0  0  0  0  0  0  0
    5.0304    1.9472   -0.4722 C   0  0  0  0  0  0  0  0  0  0  0  0
    5.6239    3.0148   -0.5252 O   0  0  0  0  0  0  0  0  0  0  0  0
    5.6819    0.7994   -0.7462 O   0  0  0  0  0  0  0  0  0  0  0  0
    0.8777    1.0923    0.4814 C   0  0  0  0  0  0  0  0  0  0  0  0
   -0.4484    0.6925    0.7079 C   0  0  0  0  0  0  0  0  0  0  0  0
   -4.2991   -1.0599   -0.9332 H   0  0  0  0  0  0  0  0  0  0  0  0
   -3.2406    0.2539   -1.4711 H   0  0  0  0  0  0  0  0  0  0  0  0
   -2.8380   -1.4254   -1.8471 H   0  0  0  0  0  0  0  0  0  0  0  0
   -4.2590   -0.3845    1.4221 H   0  0  0  0  0  0  0  0  0  0  0  0
   -2.7531   -0.0597    2.2805 H   0  0  0  0  0  0  0  0  0  0  0  0
   -3.3034    1.0347    0.9949 H   0  0  0  0  0  0  0  0  0  0  0  0
   -3.4936   -2.6637    0.9505 H   0  0  0  0  0  0  0  0  0  0  0  0
   -2.0425   -3.0095    0.0132 H   0  0  0  0  0  0  0  0  0  0  0  0
   -1.8953   -2.4246    1.6744 H   0  0  0  0  0  0  0  0  0  0  0  0
   -0.5730   -1.9191   -1.4606 H   0  0  0  0  0  0  0  0  0  0  0  0
    1.7346   -1.2120   -1.8448 H   0  0  0  0  0  0  0  0  0  0  0  0
    3.0656    2.7002   -0.2617 H   0  0  0  0  0  0  0  0  0  0  0  0
    3.5952    1.5626    1.0354 H   0  0  0  0  0  0  0  0  0  0  0  0
    6.5840    1.0840   -0.9986 H   0  0  0  0  0  0  0  0  0  0  0  0
    1.2493    1.9431    1.0424 H   0  0  0  0  0  0  0  0  0  0  0  0
   -1.0204    1.2621    1.4355 H   0  0  0  0  0  0  0  0  0  0  0  0
  1  2  1  0
  2  3  1  0
  2  4  1  0
  2  5  1  0
  5  6  2  0
  6  7  1  0
  7  8  2  0
  8  9  1  0
  9 10  1  0
 10 11  1  0
 11 12  2  0
 11 13  1  0
  8 14  1  0
 14 15  2  0
 15  5  1  0
  1 16  1  0
  1 17  1  0
  1 18  1  0
  3 19  1  0
  3 20  1  0
  3 21  1  0
  4 22  1  0
  4 23  1  0
  4 24  1  0
  6 25  1  0
  7 26  1  0
 10 27  1  0
 10 28  1  0
 13 29  1  0
 14 30  1  0
 15 31  1  0
M  END
