
     RDKit          3D

 36 36  0  0  0  0  0  0  0  0999 V2000
    3.3162   -0.0311   -1.8571 C   0  0  0  0  0  0  0  0  0  0  0  0
    2.9777    0.6961   -0.5474 C   0  0  0  0  0  0  0  0  0  0  0  0
    3.3496    2.1811   -0.7368 C   0  0  0  0  0  0  0  0  0  0  0  0
    3.7935    0.1681    0.6419 C   0  0  0  0  0  0  0  0  0  0  0  0
    1.5671    0.7327   -0.2809 O   0  0  0  0  0  0  0  0  0  0  0  0
    0.8693   -0.4255   -0.0553 C   0  0  0  0  0  0  0  0  0  0  0  0
    1.4848   -1.6137   -0.0781 N   0  0  0  0  0  0  0  0  0  0  0  0
    0.7058   -2.6893    0.1564 C   0  0  0  0  0  0  0  0  0  0  0  0
   -0.6435   -2.6128    0.4080 C   0  0  0  0  0  0  0  0  0  0  0  0
   -1.6501   -4.1735    0.7246 Br  0  0  0  0  0  0  0  0  0  0  0  0
   -1.1731   -1.3377    0.4075 C   0  0  0  0  0  0  0  0  0  0  0  0
   -2.5217   -1.2118    0.6550 O   0  0  0  0  0  0  0  0  0  0  0  0
   -3.1556    0.0802    0.6730 C   0  0  0  0  0  0  0  0  0  0  0  0
   -4.6311   -0.2464    0.9808 C   0  0  0  0  0  0  0  0  0  0  0  0
   -3.1156    0.7789   -0.6937 C   0  0  0  0  0  0  0  0  0  0  0  0
   -2.6382    0.9782    1.8060 C   0  0  0  0  0  0  0  0  0  0  0  0
   -0.4360   -0.2380    0.1790 N   0  0  0  0  0  0  0  0  0  0  0  0
    4.3548    0.1503   -2.1552 H   0  0  0  0  0  0  0  0  0  0  0  0
    3.1941   -1.1147   -1.7759 H   0  0  0  0  0  0  0  0  0  0  0  0
    2.6584    0.3016   -2.6679 H   0  0  0  0  0  0  0  0  0  0  0  0
    2.7754    2.6249   -1.5588 H   0  0  0  0  0  0  0  0  0  0  0  0
    4.4157    2.3122   -0.9508 H   0  0  0  0  0  0  0  0  0  0  0  0
    3.1037    2.7620    0.1602 H   0  0  0  0  0  0  0  0  0  0  0  0
    3.6818   -0.9111    0.7778 H   0  0  0  0  0  0  0  0  0  0  0  0
    4.8633    0.3626    0.5074 H   0  0  0  0  0  0  0  0  0  0  0  0
    3.4690    0.6399    1.5763 H   0  0  0  0  0  0  0  0  0  0  0  0
    1.2265   -3.6423    0.1329 H   0  0  0  0  0  0  0  0  0  0  0  0
   -5.2493    0.6565    1.0269 H   0  0  0  0  0  0  0  0  0  0  0  0
   -4.7218   -0.7761    1.9367 H   0  0  0  0  0  0  0  0  0  0  0  0
   -5.0501   -0.9132    0.2177 H   0  0  0  0  0  0  0  0  0  0  0  0
   -3.4009    0.0860   -1.4932 H   0  0  0  0  0  0  0  0  0  0  0  0
   -2.1188    1.1539   -0.9416 H   0  0  0  0  0  0  0  0  0  0  0  0
   -3.7941    1.6389   -0.7200 H   0  0  0  0  0  0  0  0  0  0  0  0
   -2.5905    0.4243    2.7503 H   0  0  0  0  0  0  0  0  0  0  0  0
   -3.2847    1.8515    1.9472 H   0  0  0  0  0  0  0  0  0  0  0  0
   -1.6313    1.3574    1.6112 H   0  0  0  0  0  0  0  0  0  0  0  0
  1  2  1  0
  2  3  1  0
  2  4  1  0
  2  5  1  0
  5  6  1  0
  6  7  2  0
  7  8  1  0
  8  9  2  0
  9 10  1  0
  9 11  1  0
 11 12  1  0
 12 13  1  0
 13 14  1  0
 13 15  1  0
 13 16  1  0
 11 17  2  0
 17  6  1  0
  1 18  1  0
  1 19  1  0
  1 20  1  0
  3 21  1  0
  3 22  1  0
  3 23  1  0
  4 24  1  0
  4 25  1  0
  4 26  1  0
  8 27  1  0
 14 28  1  0
 14 29  1  0
 14 30  1  0
 15 31  1  0
 15 32  1  0
 15 33  1  0
 16 34  1  0
 16 35  1  0
 16 36  1  0
M  END
