
     RDKit          3D

 43 45  0  0  0  0  0  0  0  0999 V2000
   -3.8711   -2.5441   -0.3483 C   0  0  0  0  0  0  0  0  0  0  0  0
   -3.0550   -1.7583    0.6768 C   0  0  0  0  0  0  0  0  0  0  0  0
   -3.8627   -1.5063    1.9493 C   0  0  0  0  0  0  0  0  0  0  0  0
   -2.5569   -0.4592    0.0839 C   0  0  0  0  0  0  0  0  0  0  0  0
   -1.2317   -0.3094   -0.0418 N   0  0  0  0  0  0  0  0  0  0  0  0
   -0.7967    0.8466   -0.5829 C   0  0  0  0  0  0  0  0  0  0  0  0
    0.9867    1.0117   -0.7063 S   0  0  0  0  0  0  0  0  0  0  0  0
    1.4733   -0.7435   -0.6815 C   0  0  0  0  0  0  0  0  0  0  0  0
    2.9739   -0.8558   -0.8920 C   0  0  0  0  0  0  0  0  0  0  0  0
    3.4396   -1.0212   -2.0226 O   0  0  0  0  0  0  0  0  0  0  0  0
    3.7901   -0.7665    0.2170 N   0  0  0  0  0  0  0  0  0  0  0  0
    5.2361   -0.8116    0.0875 C   0  0  0  0  0  0  0  0  0  0  0  0
    5.7541   -0.3075    1.4267 C   0  0  0  0  0  0  0  0  0  0  0  0
    4.6696   -0.7516    2.3993 C   0  0  0  0  0  0  0  0  0  0  0  0
    3.3898   -0.5480    1.5993 C   0  0  0  0  0  0  0  0  0  0  0  0
   -1.6561    1.8781   -0.9958 C   0  0  0  0  0  0  0  0  0  0  0  0
   -1.2718    3.1242   -1.5648 C   0  0  0  0  0  0  0  0  0  0  0  0
   -2.2261    4.0680   -1.9382 C   0  0  0  0  0  0  0  0  0  0  0  0
   -3.5709    3.7853   -1.7505 C   0  0  0  0  0  0  0  0  0  0  0  0
   -3.9488    2.5618   -1.1920 C   0  0  0  0  0  0  0  0  0  0  0  0
   -3.0158    1.6044   -0.8120 C   0  0  0  0  0  0  0  0  0  0  0  0
   -3.4629    0.4599   -0.2852 N   0  0  0  0  0  0  0  0  0  0  0  0
   -4.1808   -3.5109    0.0628 H   0  0  0  0  0  0  0  0  0  0  0  0
   -4.7749   -2.0021   -0.6490 H   0  0  0  0  0  0  0  0  0  0  0  0
   -3.2829   -2.7362   -1.2527 H   0  0  0  0  0  0  0  0  0  0  0  0
   -2.1831   -2.3672    0.9498 H   0  0  0  0  0  0  0  0  0  0  0  0
   -4.7713   -0.9285    1.7458 H   0  0  0  0  0  0  0  0  0  0  0  0
   -3.2717   -0.9482    2.6842 H   0  0  0  0  0  0  0  0  0  0  0  0
   -4.1641   -2.4532    2.4095 H   0  0  0  0  0  0  0  0  0  0  0  0
    0.9790   -1.2779   -1.5005 H   0  0  0  0  0  0  0  0  0  0  0  0
    1.1795   -1.2282    0.2522 H   0  0  0  0  0  0  0  0  0  0  0  0
    5.5235   -1.8545   -0.0855 H   0  0  0  0  0  0  0  0  0  0  0  0
    5.5787   -0.2030   -0.7548 H   0  0  0  0  0  0  0  0  0  0  0  0
    6.7417   -0.7058    1.6743 H   0  0  0  0  0  0  0  0  0  0  0  0
    5.8165    0.7873    1.4174 H   0  0  0  0  0  0  0  0  0  0  0  0
    4.6757   -0.1873    3.3357 H   0  0  0  0  0  0  0  0  0  0  0  0
    4.7986   -1.8144    2.6369 H   0  0  0  0  0  0  0  0  0  0  0  0
    2.6017   -1.2427    1.9001 H   0  0  0  0  0  0  0  0  0  0  0  0
    3.0238    0.4797    1.6913 H   0  0  0  0  0  0  0  0  0  0  0  0
   -0.2219    3.3627   -1.7223 H   0  0  0  0  0  0  0  0  0  0  0  0
   -1.9185    5.0154   -2.3735 H   0  0  0  0  0  0  0  0  0  0  0  0
   -4.3295    4.5092   -2.0368 H   0  0  0  0  0  0  0  0  0  0  0  0
   -5.0064    2.3487   -1.0499 H   0  0  0  0  0  0  0  0  0  0  0  0
  1  2  1  0
  2  3  1  0
  2  4  1  0
  4  5  2  0
  5  6  1  0
  6  7  1  0
  7  8  1  0
  8  9  1  0
  9 10  2  0
  9 11  1  0
 11 12  1  0
 12 13  1  0
 13 14  1  0
 14 15  1  0
  6 16  2  0
 16 17  1  0
 17 18  2  0
 18 19  1  0
 19 20  2  0
 20 21  1  0
 21 22  2  0
 22  4  1  0
 15 11  1  0
 21 16  1  0
  1 23  1  0
  1 24  1  0
  1 25  1  0
  2 26  1  0
  3 27  1  0
  3 28  1  0
  3 29  1  0
  8 30  1  0
  8 31  1  0
 12 32  1  0
 12 33  1  0
 13 34  1  0
 13 35  1  0
 14 36  1  0
 14 37  1  0
 15 38  1  0
 15 39  1  0
 17 40  1  0
 18 41  1  0
 19 42  1  0
 20 43  1  0
M  END
