
     RDKit          3D

 33 34  0  0  0  0  0  0  0  0999 V2000
   -0.5693    2.7909    0.5017 C   0  0  0  0  0  0  0  0  0  0  0  0
   -0.8304    1.6852   -0.5237 C   0  0  0  0  0  0  0  0  0  0  0  0
   -0.0386    1.8943   -1.8149 C   0  0  0  0  0  0  0  0  0  0  0  0
   -0.6666    0.3368    0.0116 N   0  0  0  0  0  0  0  0  0  0  0  0
    0.4317   -0.1968    0.6608 C   0  0  0  0  0  0  0  0  0  0  0  0
    1.5776    0.4976    0.8576 N   0  0  0  0  0  0  0  0  0  0  0  0
    2.7618   -0.2533    1.2767 C   0  0  0  0  0  0  0  0  0  0  0  0
    3.5299   -0.7554    0.0488 C   0  0  0  0  0  0  0  0  0  0  0  0
    3.9867    0.3520   -0.7383 O   0  0  0  0  0  0  0  0  0  0  0  0
    0.1997   -1.4318    1.0420 N   0  0  0  0  0  0  0  0  0  0  0  0
   -1.0635   -1.7308    0.6131 C   0  0  0  0  0  0  0  0  0  0  0  0
   -1.7877   -2.9246    0.7527 C   0  0  0  0  0  0  0  0  0  0  0  0
   -3.0779   -2.9999    0.2175 C   0  0  0  0  0  0  0  0  0  0  0  0
   -3.6361   -1.9068   -0.4447 C   0  0  0  0  0  0  0  0  0  0  0  0
   -2.9286   -0.7072   -0.5916 C   0  0  0  0  0  0  0  0  0  0  0  0
   -1.6373   -0.6492   -0.0464 C   0  0  0  0  0  0  0  0  0  0  0  0
   -0.9102    3.7566    0.1123 H   0  0  0  0  0  0  0  0  0  0  0  0
   -1.1093    2.5961    1.4348 H   0  0  0  0  0  0  0  0  0  0  0  0
    0.4920    2.8984    0.7422 H   0  0  0  0  0  0  0  0  0  0  0  0
   -1.8897    1.7799   -0.7897 H   0  0  0  0  0  0  0  0  0  0  0  0
    1.0420    1.8731   -1.6489 H   0  0  0  0  0  0  0  0  0  0  0  0
   -0.2757    1.1151   -2.5478 H   0  0  0  0  0  0  0  0  0  0  0  0
   -0.2856    2.8626   -2.2633 H   0  0  0  0  0  0  0  0  0  0  0  0
    1.8268    1.2058    0.1737 H   0  0  0  0  0  0  0  0  0  0  0  0
    2.5136   -1.0828    1.9486 H   0  0  0  0  0  0  0  0  0  0  0  0
    3.4006    0.4373    1.8392 H   0  0  0  0  0  0  0  0  0  0  0  0
    4.4023   -1.3428    0.3513 H   0  0  0  0  0  0  0  0  0  0  0  0
    2.8969   -1.3801   -0.5892 H   0  0  0  0  0  0  0  0  0  0  0  0
    4.6530    0.8225   -0.2082 H   0  0  0  0  0  0  0  0  0  0  0  0
   -1.3437   -3.7689    1.2679 H   0  0  0  0  0  0  0  0  0  0  0  0
   -3.6472   -3.9204    0.3196 H   0  0  0  0  0  0  0  0  0  0  0  0
   -4.6407   -1.9867   -0.8550 H   0  0  0  0  0  0  0  0  0  0  0  0
   -3.3765    0.1330   -1.1101 H   0  0  0  0  0  0  0  0  0  0  0  0
  1  2  1  0
  2  3  1  0
  2  4  1  0
  4  5  1  0
  5  6  1  0
  6  7  1  0
  7  8  1  0
  8  9  1  0
  5 10  2  0
 10 11  1  0
 11 12  2  0
 12 13  1  0
 13 14  2  0
 14 15  1  0
 15 16  2  0
 16  4  1  0
 16 11  1  0
  1 17  1  0
  1 18  1  0
  1 19  1  0
  2 20  1  0
  3 21  1  0
  3 22  1  0
  3 23  1  0
  6 24  1  0
  7 25  1  0
  7 26  1  0
  8 27  1  0
  8 28  1  0
  9 29  1  0
 12 30  1  0
 13 31  1  0
 14 32  1  0
 15 33  1  0
M  END
