
     RDKit          3D

 32 33  0  0  0  0  0  0  0  0999 V2000
   -4.3590   -1.6740    0.8834 C   0  0  0  0  0  0  0  0  0  0  0  0
   -4.3961   -0.6480   -0.2434 C   0  0  0  0  0  0  0  0  0  0  0  0
   -5.5771   -0.9079   -1.1707 C   0  0  0  0  0  0  0  0  0  0  0  0
   -3.1993   -0.7620   -1.0389 O   0  0  0  0  0  0  0  0  0  0  0  0
   -2.0996   -0.0901   -0.5776 C   0  0  0  0  0  0  0  0  0  0  0  0
   -2.0769    0.5781    0.4451 O   0  0  0  0  0  0  0  0  0  0  0  0
   -0.9586   -0.3269   -1.5186 C   0  0  0  0  0  0  0  0  0  0  0  0
    0.2063    0.4244   -1.1249 N   0  0  0  0  0  0  0  0  0  0  0  0
    0.4244    1.6696   -1.5792 N   0  0  0  0  0  0  0  0  0  0  0  0
    1.6346    1.9795   -1.1386 N   0  0  0  0  0  0  0  0  0  0  0  0
    2.1150    0.8755   -0.4688 C   0  0  0  0  0  0  0  0  0  0  0  0
    3.4333    0.8375    0.1513 C   0  0  0  0  0  0  0  0  0  0  0  0
    4.2807    1.9539    0.0890 C   0  0  0  0  0  0  0  0  0  0  0  0
    5.5460    1.9212    0.6818 C   0  0  0  0  0  0  0  0  0  0  0  0
    5.9774    0.7730    1.3431 C   0  0  0  0  0  0  0  0  0  0  0  0
    5.1461   -0.3430    1.4136 C   0  0  0  0  0  0  0  0  0  0  0  0
    3.8809   -0.3112    0.8212 C   0  0  0  0  0  0  0  0  0  0  0  0
    1.2421   -0.1495   -0.4807 N   0  0  0  0  0  0  0  0  0  0  0  0
   -3.5124   -1.4892    1.5525 H   0  0  0  0  0  0  0  0  0  0  0  0
   -4.2288   -2.6868    0.4863 H   0  0  0  0  0  0  0  0  0  0  0  0
   -5.2783   -1.6445    1.4762 H   0  0  0  0  0  0  0  0  0  0  0  0
   -4.4909    0.3660    0.1635 H   0  0  0  0  0  0  0  0  0  0  0  0
   -6.5280   -0.8377   -0.6337 H   0  0  0  0  0  0  0  0  0  0  0  0
   -5.5846   -0.1806   -1.9898 H   0  0  0  0  0  0  0  0  0  0  0  0
   -5.5054   -1.8993   -1.6317 H   0  0  0  0  0  0  0  0  0  0  0  0
   -1.2360   -0.0107   -2.5291 H   0  0  0  0  0  0  0  0  0  0  0  0
   -0.6965   -1.3894   -1.5198 H   0  0  0  0  0  0  0  0  0  0  0  0
    3.9626    2.8610   -0.4216 H   0  0  0  0  0  0  0  0  0  0  0  0
    6.1927    2.7933    0.6271 H   0  0  0  0  0  0  0  0  0  0  0  0
    6.9613    0.7484    1.8048 H   0  0  0  0  0  0  0  0  0  0  0  0
    5.4801   -1.2392    1.9304 H   0  0  0  0  0  0  0  0  0  0  0  0
    3.2442   -1.1914    0.8877 H   0  0  0  0  0  0  0  0  0  0  0  0
  1  2  1  0
  2  3  1  0
  2  4  1  0
  4  5  1  0
  5  6  2  0
  5  7  1  0
  7  8  1  0
  8  9  1  0
  9 10  2  0
 10 11  1  0
 11 12  1  0
 12 13  2  0
 13 14  1  0
 14 15  2  0
 15 16  1  0
 16 17  2  0
 11 18  2  0
 18  8  1  0
 17 12  1  0
  1 19  1  0
  1 20  1  0
  1 21  1  0
  2 22  1  0
  3 23  1  0
  3 24  1  0
  3 25  1  0
  7 26  1  0
  7 27  1  0
 13 28  1  0
 14 29  1  0
 15 30  1  0
 16 31  1  0
 17 32  1  0
M  END
