
     RDKit          3D

 44 50  0  0  0  0  0  0  0  0999 V2000
   -6.2321   -1.3159   -0.4446 Si  0  0  0  0  0  4  0  0  0  0  0  0
   -6.6258    0.3914    0.2114 C   0  0  0  0  0  0  0  0  0  0  0  0
   -5.4972    1.0799    0.4681 C   0  0  0  0  0  0  0  0  0  0  0  0
   -5.4709    2.4427    0.9899 C   0  0  0  0  0  0  0  0  0  0  0  0
   -4.2947    3.0599    1.2191 C   0  0  0  0  0  0  0  0  0  0  0  0
   -3.0932    2.3420    0.9368 C   0  0  0  0  0  0  0  0  0  0  0  0
   -1.8226    2.8188    1.1117 O   0  0  0  0  0  0  0  0  0  0  0  0
   -0.9573    1.8395    0.7310 C   0  0  0  0  0  0  0  0  0  0  0  0
    0.4308    1.9523    0.7666 C   0  0  0  0  0  0  0  0  0  0  0  0
    1.1741    0.8413    0.3367 C   0  0  0  0  0  0  0  0  0  0  0  0
    2.6524    0.9313    0.3752 C   0  0  0  0  0  0  0  0  0  0  0  0
    3.4796   -0.0703   -0.0084 C   0  0  0  0  0  0  0  0  0  0  0  0
    4.9422    0.1702    0.1260 C   0  0  0  0  0  0  0  0  0  0  0  0
    5.7061   -0.8411    0.5510 N   0  0  0  0  0  0  0  0  0  0  0  0
    6.9978   -0.5498    0.6717 C   0  0  0  0  0  0  0  0  0  0  0  0
    7.5656    0.6240    0.4106 N   0  0  0  0  0  0  0  0  0  0  0  0
    6.7087    1.5543    0.0003 C   0  0  0  0  0  0  0  0  0  0  0  0
    5.3974    1.3981   -0.1561 N   0  0  0  0  0  0  0  0  0  0  0  0
    2.8640   -1.3087   -0.5076 C   0  0  0  0  0  0  0  0  0  0  0  0
    3.5277   -2.3857   -0.9803 C   0  0  0  0  0  0  0  0  0  0  0  0
    2.3749   -3.7459   -1.5141 Si  0  0  0  0  0  4  0  0  0  0  0  0
    0.9500   -2.6387   -1.0376 C   0  0  0  0  0  0  0  0  0  0  0  0
    1.3840   -1.4543   -0.5559 C   0  0  0  0  0  0  0  0  0  0  0  0
    0.5240   -0.3333   -0.1114 C   0  0  0  0  0  0  0  0  0  0  0  0
   -0.8843   -0.3997   -0.1277 C   0  0  0  0  0  0  0  0  0  0  0  0
   -1.6416    0.7083    0.3020 C   0  0  0  0  0  0  0  0  0  0  0  0
   -3.0128    1.0398    0.4375 C   0  0  0  0  0  0  0  0  0  0  0  0
   -4.2336    0.3396    0.1769 C   0  0  0  0  0  0  0  0  0  0  0  0
   -4.4108   -0.9070   -0.2992 C   0  0  0  0  0  0  0  0  0  0  0  0
   -6.6585   -1.4930   -1.8533 H   0  0  0  0  0  0  0  0  0  0  0  0
   -6.6442   -2.3902    0.4900 H   0  0  0  0  0  0  0  0  0  0  0  0
   -7.6430    0.7235    0.3449 H   0  0  0  0  0  0  0  0  0  0  0  0
   -6.4101    2.9475    1.1889 H   0  0  0  0  0  0  0  0  0  0  0  0
   -4.2358    4.0700    1.6056 H   0  0  0  0  0  0  0  0  0  0  0  0
    0.8966    2.8663    1.1154 H   0  0  0  0  0  0  0  0  0  0  0  0
    3.0592    1.8660    0.7553 H   0  0  0  0  0  0  0  0  0  0  0  0
    7.6499   -1.3456    1.0156 H   0  0  0  0  0  0  0  0  0  0  0  0
    7.1169    2.5333   -0.2265 H   0  0  0  0  0  0  0  0  0  0  0  0
    4.5945   -2.5175   -1.0624 H   0  0  0  0  0  0  0  0  0  0  0  0
    2.4249   -4.0003   -2.9741 H   0  0  0  0  0  0  0  0  0  0  0  0
    2.4650   -4.9500   -0.6536 H   0  0  0  0  0  0  0  0  0  0  0  0
   -0.0636   -2.9753   -1.1749 H   0  0  0  0  0  0  0  0  0  0  0  0
   -1.3937   -1.2922   -0.4672 H   0  0  0  0  0  0  0  0  0  0  0  0
   -3.6606   -1.6255   -0.5788 H   0  0  0  0  0  0  0  0  0  0  0  0
  1  2  1  0
  2  3  2  0
  3  4  1  0
  4  5  2  0
  5  6  1  0
  6  7  1  0
  7  8  1  0
  8  9  2  0
  9 10  1  0
 10 11  1  0
 11 12  2  0
 12 13  1  0
 13 14  2  0
 14 15  1  0
 15 16  2  0
 16 17  1  0
 17 18  2  0
 12 19  1  0
 19 20  2  0
 20 21  1  0
 21 22  1  0
 22 23  2  0
 23 24  1  0
 24 25  1  0
 25 26  2  0
 26 27  1  0
 27 28  1  0
 28 29  2  0
 29  1  1  0
 28  3  1  0
 27  6  2  0
 26  8  1  0
 24 10  2  0
 18 13  1  0
 23 19  1  0
  1 30  1  0
  1 31  1  0
  2 32  1  0
  4 33  1  0
  5 34  1  0
  9 35  1  0
 11 36  1  0
 15 37  1  0
 17 38  1  0
 20 39  1  0
 21 40  1  0
 21 41  1  0
 22 42  1  0
 25 43  1  0
 29 44  1  0
M  END
