
     RDKit          3D

 34 37  0  0  0  0  0  0  0  0999 V2000
    5.1127   -0.6882   -0.2126 C   0  0  0  0  0  0  0  0  0  0  0  0
    3.7531   -0.0809   -0.0301 C   0  0  0  0  0  0  0  0  0  0  0  0
    2.9347    0.1711   -1.1377 C   0  0  0  0  0  0  0  0  0  0  0  0
    1.6579    0.7124   -0.9657 C   0  0  0  0  0  0  0  0  0  0  0  0
    3.2701    0.2019    1.2532 C   0  0  0  0  0  0  0  0  0  0  0  0
    1.9936    0.7433    1.4258 C   0  0  0  0  0  0  0  0  0  0  0  0
    1.1717    0.9846    0.3196 C   0  0  0  0  0  0  0  0  0  0  0  0
   -0.1565    1.5620    0.5101 C   0  0  0  0  0  0  0  0  0  0  0  0
   -0.3312    2.7978    0.9552 N   0  0  0  0  0  0  0  0  0  0  0  0
   -1.6646    3.0607    0.8452 C   0  0  0  0  0  0  0  0  0  0  0  0
   -2.3392    1.9674    0.3619 C   0  0  0  0  0  0  0  0  0  0  0  0
   -1.3856    0.9619    0.2272 N   0  0  0  0  0  0  0  0  0  0  0  0
   -1.7392   -0.3723   -0.1349 C   0  0  0  0  0  0  0  0  0  0  0  0
   -3.0943   -0.5973   -0.4561 C   0  0  0  0  0  0  0  0  0  0  0  0
   -3.5158   -1.8774   -0.8338 C   0  0  0  0  0  0  0  0  0  0  0  0
   -2.6044   -2.9316   -0.8747 C   0  0  0  0  0  0  0  0  0  0  0  0
   -1.2731   -2.7141   -0.5264 C   0  0  0  0  0  0  0  0  0  0  0  0
   -0.8379   -1.4400   -0.1496 C   0  0  0  0  0  0  0  0  0  0  0  0
   -4.0677    0.4989   -0.3763 C   0  0  0  0  0  0  0  0  0  0  0  0
   -3.6913    1.7179    0.0322 C   0  0  0  0  0  0  0  0  0  0  0  0
    5.7965   -0.3603    0.5773 H   0  0  0  0  0  0  0  0  0  0  0  0
    5.0406   -1.7799   -0.1879 H   0  0  0  0  0  0  0  0  0  0  0  0
    5.5516   -0.3837   -1.1686 H   0  0  0  0  0  0  0  0  0  0  0  0
    3.2896   -0.0430   -2.1434 H   0  0  0  0  0  0  0  0  0  0  0  0
    1.0455    0.9217   -1.8399 H   0  0  0  0  0  0  0  0  0  0  0  0
    3.8885    0.0135    2.1281 H   0  0  0  0  0  0  0  0  0  0  0  0
    1.6407    0.9806    2.4273 H   0  0  0  0  0  0  0  0  0  0  0  0
   -2.0687    4.0295    1.1083 H   0  0  0  0  0  0  0  0  0  0  0  0
   -4.5553   -2.0668   -1.0905 H   0  0  0  0  0  0  0  0  0  0  0  0
   -2.9351   -3.9258   -1.1646 H   0  0  0  0  0  0  0  0  0  0  0  0
   -0.5681   -3.5425   -0.5391 H   0  0  0  0  0  0  0  0  0  0  0  0
    0.1990   -1.3415    0.1460 H   0  0  0  0  0  0  0  0  0  0  0  0
   -5.1015    0.2973   -0.6362 H   0  0  0  0  0  0  0  0  0  0  0  0
   -4.4166    2.5229    0.1062 H   0  0  0  0  0  0  0  0  0  0  0  0
  1  2  1  0
  2  3  2  0
  3  4  1  0
  2  5  1  0
  5  6  2  0
  6  7  1  0
  7  8  1  0
  8  9  2  0
  9 10  1  0
 10 11  2  0
 11 12  1  0
 12 13  1  0
 13 14  2  0
 14 15  1  0
 15 16  2  0
 16 17  1  0
 17 18  2  0
 14 19  1  0
 19 20  2  0
  7  4  2  0
 12  8  1  0
 20 11  1  0
 18 13  1  0
  1 21  1  0
  1 22  1  0
  1 23  1  0
  3 24  1  0
  4 25  1  0
  5 26  1  0
  6 27  1  0
 10 28  1  0
 15 29  1  0
 16 30  1  0
 17 31  1  0
 18 32  1  0
 19 33  1  0
 20 34  1  0
M  END
