
     RDKit          3D

 39 42  0  0  0  0  0  0  0  0999 V2000
   -6.2895   -2.1192    0.8903 C   0  0  0  0  0  0  0  0  0  0  0  0
   -5.0674   -1.3560    0.4738 C   0  0  0  0  0  0  0  0  0  0  0  0
   -3.7944   -1.7901    0.8591 C   0  0  0  0  0  0  0  0  0  0  0  0
   -2.6569   -1.0608    0.4975 C   0  0  0  0  0  0  0  0  0  0  0  0
   -5.1876   -0.1688   -0.2565 C   0  0  0  0  0  0  0  0  0  0  0  0
   -4.0497    0.5599   -0.6175 C   0  0  0  0  0  0  0  0  0  0  0  0
   -2.7712    0.1215   -0.2469 C   0  0  0  0  0  0  0  0  0  0  0  0
   -1.5881    0.8892   -0.6288 C   0  0  0  0  0  0  0  0  0  0  0  0
   -0.3358    0.5239   -0.3254 N   0  0  0  0  0  0  0  0  0  0  0  0
    0.4113    1.5156   -0.8693 N   0  0  0  0  0  0  0  0  0  0  0  0
    1.8062    1.6884   -0.8753 C   0  0  0  0  0  0  0  0  0  0  0  0
    2.7204    0.7167   -0.2462 C   0  0  0  0  0  0  0  0  0  0  0  0
    3.6207    1.1196    0.7504 C   0  0  0  0  0  0  0  0  0  0  0  0
    4.4939    0.1980    1.3359 C   0  0  0  0  0  0  0  0  0  0  0  0
    4.4895   -1.1406    0.9302 C   0  0  0  0  0  0  0  0  0  0  0  0
    5.3990   -2.1374    1.5854 C   0  0  0  0  0  0  0  0  0  0  0  0
    3.5789   -1.5494   -0.0497 C   0  0  0  0  0  0  0  0  0  0  0  0
    2.7056   -0.6285   -0.6357 C   0  0  0  0  0  0  0  0  0  0  0  0
    2.3212    2.7662   -1.4969 C   0  0  0  0  0  0  0  0  0  0  0  0
    1.3375    3.6901   -2.1194 C   0  0  0  0  0  0  0  0  0  0  0  0
    0.0489    3.5549   -2.1237 N   0  0  0  0  0  0  0  0  0  0  0  0
   -0.4345    2.4463   -1.4885 C   0  0  0  0  0  0  0  0  0  0  0  0
   -1.6799    2.0579   -1.3416 N   0  0  0  0  0  0  0  0  0  0  0  0
   -6.0731   -3.1897    0.9704 H   0  0  0  0  0  0  0  0  0  0  0  0
   -7.0915   -2.0047    0.1535 H   0  0  0  0  0  0  0  0  0  0  0  0
   -6.6449   -1.7564    1.8596 H   0  0  0  0  0  0  0  0  0  0  0  0
   -3.6764   -2.6996    1.4439 H   0  0  0  0  0  0  0  0  0  0  0  0
   -1.6776   -1.4218    0.8060 H   0  0  0  0  0  0  0  0  0  0  0  0
   -6.1674    0.1998   -0.5517 H   0  0  0  0  0  0  0  0  0  0  0  0
   -4.1682    1.4781   -1.1903 H   0  0  0  0  0  0  0  0  0  0  0  0
    3.6428    2.1511    1.0947 H   0  0  0  0  0  0  0  0  0  0  0  0
    5.1745    0.5319    2.1163 H   0  0  0  0  0  0  0  0  0  0  0  0
    4.9069   -2.5752    2.4593 H   0  0  0  0  0  0  0  0  0  0  0  0
    5.6648   -2.9400    0.8893 H   0  0  0  0  0  0  0  0  0  0  0  0
    6.3327   -1.6629    1.9051 H   0  0  0  0  0  0  0  0  0  0  0  0
    3.5382   -2.5907   -0.3621 H   0  0  0  0  0  0  0  0  0  0  0  0
    2.0072   -0.9784   -1.3938 H   0  0  0  0  0  0  0  0  0  0  0  0
    3.3755    2.9926   -1.5812 H   0  0  0  0  0  0  0  0  0  0  0  0
    1.7783    4.5686   -2.6204 H   0  0  0  0  0  0  0  0  0  0  0  0
  1  2  1  0
  2  3  2  0
  3  4  1  0
  2  5  1  0
  5  6  2  0
  6  7  1  0
  7  8  1  0
  8  9  2  0
  9 10  1  0
 10 11  1  0
 11 12  1  0
 12 13  2  0
 13 14  1  0
 14 15  2  0
 15 16  1  0
 15 17  1  0
 17 18  2  0
 11 19  2  0
 19 20  1  0
 20 21  2  0
 21 22  1  0
 22 23  2  0
  7  4  2  0
 23  8  1  0
 22 10  1  0
 18 12  1  0
  1 24  1  0
  1 25  1  0
  1 26  1  0
  3 27  1  0
  4 28  1  0
  5 29  1  0
  6 30  1  0
 13 31  1  0
 14 32  1  0
 16 33  1  0
 16 34  1  0
 16 35  1  0
 17 36  1  0
 18 37  1  0
 19 38  1  0
 20 39  1  0
M  END
