
     RDKit          3D

 38 40  0  0  0  0  0  0  0  0999 V2000
   -0.8093   -2.9681    0.5151 C   0  0  0  0  0  0  0  0  0  0  0  0
   -1.1160   -2.0557   -0.6426 C   0  0  0  0  0  0  0  0  0  0  0  0
   -1.1523   -0.6034   -0.3727 C   0  0  0  0  0  0  0  0  0  0  0  0
    0.0224    0.1327   -0.0618 C   0  0  0  0  0  0  0  0  0  0  0  0
    1.3312   -0.4232   -0.0421 C   0  0  0  0  0  0  0  0  0  0  0  0
    2.4923    0.3121    0.2685 C   0  0  0  0  0  0  0  0  0  0  0  0
    3.7579   -0.2901    0.2938 N   0  0  0  0  0  0  0  0  0  0  0  0
    4.9364    0.5343    0.5559 C   0  0  0  0  0  0  0  0  0  0  0  0
    3.9858   -1.4414   -0.5827 C   0  0  0  0  0  0  0  0  0  0  0  0
    2.2929    1.6606    0.5891 C   0  0  0  0  0  0  0  0  0  0  0  0
    1.0245    2.2544    0.5605 C   0  0  0  0  0  0  0  0  0  0  0  0
   -0.1131    1.5138    0.2308 C   0  0  0  0  0  0  0  0  0  0  0  0
   -1.3722    2.1396    0.1869 C   0  0  0  0  0  0  0  0  0  0  0  0
   -2.4921    1.3939   -0.1375 C   0  0  0  0  0  0  0  0  0  0  0  0
   -2.3891    0.0320   -0.4149 C   0  0  0  0  0  0  0  0  0  0  0  0
   -3.7287   -0.5348   -0.7771 C   0  0  0  0  0  0  0  0  0  0  0  0
   -4.6716    0.5458   -0.2291 C   0  0  0  0  0  0  0  0  0  0  0  0
   -3.9019    1.8714   -0.2916 C   0  0  0  0  0  0  0  0  0  0  0  0
   -1.3698   -2.4760   -1.7671 O   0  0  0  0  0  0  0  0  0  0  0  0
   -0.6632   -2.4054    1.4413 H   0  0  0  0  0  0  0  0  0  0  0  0
    0.0993   -3.5358    0.2989 H   0  0  0  0  0  0  0  0  0  0  0  0
   -1.6503   -3.6517    0.6604 H   0  0  0  0  0  0  0  0  0  0  0  0
    1.4367   -1.4765   -0.2820 H   0  0  0  0  0  0  0  0  0  0  0  0
    5.1007    1.2560   -0.2518 H   0  0  0  0  0  0  0  0  0  0  0  0
    5.8364   -0.0855    0.6390 H   0  0  0  0  0  0  0  0  0  0  0  0
    4.8482    1.0628    1.5115 H   0  0  0  0  0  0  0  0  0  0  0  0
    3.4166   -2.3141   -0.2462 H   0  0  0  0  0  0  0  0  0  0  0  0
    3.7227   -1.2069   -1.6203 H   0  0  0  0  0  0  0  0  0  0  0  0
    5.0384   -1.7468   -0.5728 H   0  0  0  0  0  0  0  0  0  0  0  0
    3.1259    2.3038    0.8556 H   0  0  0  0  0  0  0  0  0  0  0  0
    0.9436    3.3129    0.7998 H   0  0  0  0  0  0  0  0  0  0  0  0
   -1.4739    3.2018    0.3944 H   0  0  0  0  0  0  0  0  0  0  0  0
   -3.9233   -1.5012   -0.3038 H   0  0  0  0  0  0  0  0  0  0  0  0
   -3.8189   -0.6226   -1.8648 H   0  0  0  0  0  0  0  0  0  0  0  0
   -5.6210    0.5870   -0.7720 H   0  0  0  0  0  0  0  0  0  0  0  0
   -4.9089    0.3171    0.8194 H   0  0  0  0  0  0  0  0  0  0  0  0
   -4.2061    2.5480    0.5118 H   0  0  0  0  0  0  0  0  0  0  0  0
   -4.0304    2.3591   -1.2633 H   0  0  0  0  0  0  0  0  0  0  0  0
  1  2  1  0
  2  3  1  0
  3  4  2  0
  4  5  1  0
  5  6  2  0
  6  7  1  0
  7  8  1  0
  7  9  1  0
  6 10  1  0
 10 11  2  0
 11 12  1  0
 12 13  2  0
 13 14  1  0
 14 15  2  0
 15 16  1  0
 16 17  1  0
 17 18  1  0
  2 19  2  0
 15  3  1  0
 12  4  1  0
 18 14  1  0
  1 20  1  0
  1 21  1  0
  1 22  1  0
  5 23  1  0
  8 24  1  0
  8 25  1  0
  8 26  1  0
  9 27  1  0
  9 28  1  0
  9 29  1  0
 10 30  1  0
 11 31  1  0
 13 32  1  0
 16 33  1  0
 16 34  1  0
 17 35  1  0
 17 36  1  0
 18 37  1  0
 18 38  1  0
M  END
