
     RDKit          3D

 43 46  0  0  0  0  0  0  0  0999 V2000
    0.1603   -2.5873   -1.8557 C   0  0  0  0  0  0  0  0  0  0  0  0
    0.2836   -1.1928   -2.4101 C   0  0  0  0  0  0  0  0  0  0  0  0
   -0.6109   -0.1567   -1.8525 C   0  0  0  0  0  0  0  0  0  0  0  0
   -0.4887    0.3015   -0.5132 C   0  0  0  0  0  0  0  0  0  0  0  0
    0.5272   -0.1234    0.3857 C   0  0  0  0  0  0  0  0  0  0  0  0
    0.6346    0.3316    1.7118 C   0  0  0  0  0  0  0  0  0  0  0  0
    1.6315   -0.1129    2.5614 N   0  0  0  0  0  0  0  0  0  0  0  0
    2.0563    0.6698    3.7354 C   0  0  0  0  0  0  0  0  0  0  0  0
    3.5412    0.4085    4.0413 C   0  0  0  0  0  0  0  0  0  0  0  0
    3.8502   -0.9672    4.3030 O   0  0  0  0  0  0  0  0  0  0  0  0
    2.9969   -1.8826    3.6021 C   0  0  0  0  0  0  0  0  0  0  0  0
    2.4195   -1.3260    2.2895 C   0  0  0  0  0  0  0  0  0  0  0  0
   -0.3282    1.2572    2.1276 C   0  0  0  0  0  0  0  0  0  0  0  0
   -1.3329    1.7199    1.2702 C   0  0  0  0  0  0  0  0  0  0  0  0
   -1.4240    1.2617   -0.0469 C   0  0  0  0  0  0  0  0  0  0  0  0
   -2.4282    1.7601   -0.8963 C   0  0  0  0  0  0  0  0  0  0  0  0
   -2.5064    1.3022   -2.2000 C   0  0  0  0  0  0  0  0  0  0  0  0
   -1.6079    0.3508   -2.6797 C   0  0  0  0  0  0  0  0  0  0  0  0
   -1.8758    0.0548   -4.1247 C   0  0  0  0  0  0  0  0  0  0  0  0
   -3.3038    0.5957   -4.2838 C   0  0  0  0  0  0  0  0  0  0  0  0
   -3.4541    1.7393   -3.2725 C   0  0  0  0  0  0  0  0  0  0  0  0
    1.0591   -0.9093   -3.3176 O   0  0  0  0  0  0  0  0  0  0  0  0
   -0.0887   -3.2721   -2.6710 H   0  0  0  0  0  0  0  0  0  0  0  0
    1.1084   -2.8817   -1.3986 H   0  0  0  0  0  0  0  0  0  0  0  0
   -0.6311   -2.6518   -1.1039 H   0  0  0  0  0  0  0  0  0  0  0  0
    1.2866   -0.8064    0.0154 H   0  0  0  0  0  0  0  0  0  0  0  0
    1.9354    1.7456    3.5644 H   0  0  0  0  0  0  0  0  0  0  0  0
    1.4417    0.3772    4.5946 H   0  0  0  0  0  0  0  0  0  0  0  0
    4.1645    0.7335    3.1997 H   0  0  0  0  0  0  0  0  0  0  0  0
    3.8514    0.9868    4.9175 H   0  0  0  0  0  0  0  0  0  0  0  0
    3.5797   -2.7876    3.4028 H   0  0  0  0  0  0  0  0  0  0  0  0
    2.1844   -2.1617    4.2836 H   0  0  0  0  0  0  0  0  0  0  0  0
    1.7973   -2.1071    1.8375 H   0  0  0  0  0  0  0  0  0  0  0  0
    3.2340   -1.0773    1.5991 H   0  0  0  0  0  0  0  0  0  0  0  0
   -0.3282    1.6341    3.1468 H   0  0  0  0  0  0  0  0  0  0  0  0
   -2.0461    2.4471    1.6528 H   0  0  0  0  0  0  0  0  0  0  0  0
   -3.1343    2.5084   -0.5451 H   0  0  0  0  0  0  0  0  0  0  0  0
   -1.1726    0.6049   -4.7584 H   0  0  0  0  0  0  0  0  0  0  0  0
   -1.8339   -1.0135   -4.3545 H   0  0  0  0  0  0  0  0  0  0  0  0
   -4.0192   -0.2006   -4.0349 H   0  0  0  0  0  0  0  0  0  0  0  0
   -3.5192    0.9125   -5.3090 H   0  0  0  0  0  0  0  0  0  0  0  0
   -4.4838    1.8227   -2.9141 H   0  0  0  0  0  0  0  0  0  0  0  0
   -3.1259    2.6923   -3.6998 H   0  0  0  0  0  0  0  0  0  0  0  0
  1  2  1  0
  2  3  1  0
  3  4  2  0
  4  5  1  0
  5  6  2  0
  6  7  1  0
  7  8  1  0
  8  9  1  0
  9 10  1  0
 10 11  1  0
 11 12  1  0
  6 13  1  0
 13 14  2  0
 14 15  1  0
 15 16  2  0
 16 17  1  0
 17 18  2  0
 18 19  1  0
 19 20  1  0
 20 21  1  0
  2 22  2  0
 18  3  1  0
 15  4  1  0
 12  7  1  0
 21 17  1  0
  1 23  1  0
  1 24  1  0
  1 25  1  0
  5 26  1  0
  8 27  1  0
  8 28  1  0
  9 29  1  0
  9 30  1  0
 11 31  1  0
 11 32  1  0
 12 33  1  0
 12 34  1  0
 13 35  1  0
 14 36  1  0
 16 37  1  0
 19 38  1  0
 19 39  1  0
 20 40  1  0
 20 41  1  0
 21 42  1  0
 21 43  1  0
M  END
