
     RDKit          3D

 46 49  0  0  0  0  0  0  0  0999 V2000
   -3.2382    3.0548   -0.8049 C   0  0  0  0  0  0  0  0  0  0  0  0
   -2.8855    2.2828    0.4375 C   0  0  0  0  0  0  0  0  0  0  0  0
   -2.8883    0.8087    0.3417 C   0  0  0  0  0  0  0  0  0  0  0  0
   -1.6697    0.0803    0.3402 C   0  0  0  0  0  0  0  0  0  0  0  0
   -0.3912    0.6833    0.4386 C   0  0  0  0  0  0  0  0  0  0  0  0
    0.7987   -0.0612    0.4308 C   0  0  0  0  0  0  0  0  0  0  0  0
    2.0251    0.6229    0.4979 N   0  0  0  0  0  0  0  0  0  0  0  0
    3.3187    0.2795    0.0718 C   0  0  0  0  0  0  0  0  0  0  0  0
    4.4231    0.8010    0.7594 C   0  0  0  0  0  0  0  0  0  0  0  0
    5.7342    0.4615    0.3987 C   0  0  0  0  0  0  0  0  0  0  0  0
    5.9632   -0.4134   -0.6604 C   0  0  0  0  0  0  0  0  0  0  0  0
    7.1838   -0.8270   -1.1163 O   0  0  0  0  0  0  0  0  0  0  0  0
    8.3274   -0.3152   -0.4440 C   0  0  0  0  0  0  0  0  0  0  0  0
    4.8711   -0.9407   -1.3492 C   0  0  0  0  0  0  0  0  0  0  0  0
    3.5636   -0.6012   -0.9846 C   0  0  0  0  0  0  0  0  0  0  0  0
    0.7037   -1.4457    0.3040 C   0  0  0  0  0  0  0  0  0  0  0  0
   -0.5403   -2.0762    0.2127 C   0  0  0  0  0  0  0  0  0  0  0  0
   -1.7292   -1.3355    0.2299 C   0  0  0  0  0  0  0  0  0  0  0  0
   -2.9687   -1.9931    0.1448 C   0  0  0  0  0  0  0  0  0  0  0  0
   -4.1375   -1.2501    0.1566 C   0  0  0  0  0  0  0  0  0  0  0  0
   -4.1059    0.1415    0.2504 C   0  0  0  0  0  0  0  0  0  0  0  0
   -5.4989    0.6910    0.3181 C   0  0  0  0  0  0  0  0  0  0  0  0
   -6.3179   -0.4895   -0.2228 C   0  0  0  0  0  0  0  0  0  0  0  0
   -5.5442   -1.7618    0.1419 C   0  0  0  0  0  0  0  0  0  0  0  0
   -2.5831    2.8289    1.4935 O   0  0  0  0  0  0  0  0  0  0  0  0
   -4.1392    3.6453   -0.6200 H   0  0  0  0  0  0  0  0  0  0  0  0
   -3.4206    2.3876   -1.6520 H   0  0  0  0  0  0  0  0  0  0  0  0
   -2.4051    3.7144   -1.0625 H   0  0  0  0  0  0  0  0  0  0  0  0
   -0.3162    1.7661    0.5270 H   0  0  0  0  0  0  0  0  0  0  0  0
    1.9742    1.5006    1.0041 H   0  0  0  0  0  0  0  0  0  0  0  0
    4.2722    1.4745    1.5998 H   0  0  0  0  0  0  0  0  0  0  0  0
    6.5475    0.8958    0.9698 H   0  0  0  0  0  0  0  0  0  0  0  0
    8.3853    0.7743   -0.5367 H   0  0  0  0  0  0  0  0  0  0  0  0
    9.2148   -0.7376   -0.9251 H   0  0  0  0  0  0  0  0  0  0  0  0
    8.3392   -0.6245    0.6064 H   0  0  0  0  0  0  0  0  0  0  0  0
    5.0359   -1.6198   -2.1819 H   0  0  0  0  0  0  0  0  0  0  0  0
    2.7404   -1.0114   -1.5626 H   0  0  0  0  0  0  0  0  0  0  0  0
    1.5983   -2.0625    0.3153 H   0  0  0  0  0  0  0  0  0  0  0  0
   -0.5663   -3.1612    0.1341 H   0  0  0  0  0  0  0  0  0  0  0  0
   -3.0201   -3.0772    0.0805 H   0  0  0  0  0  0  0  0  0  0  0  0
   -5.7647    0.9127    1.3569 H   0  0  0  0  0  0  0  0  0  0  0  0
   -5.6435    1.5783   -0.3028 H   0  0  0  0  0  0  0  0  0  0  0  0
   -6.3834   -0.4097   -1.3170 H   0  0  0  0  0  0  0  0  0  0  0  0
   -7.3428   -0.4982    0.1610 H   0  0  0  0  0  0  0  0  0  0  0  0
   -5.6964   -2.5493   -0.6014 H   0  0  0  0  0  0  0  0  0  0  0  0
   -5.8235   -2.1239    1.1366 H   0  0  0  0  0  0  0  0  0  0  0  0
  1  2  1  0
  2  3  1  0
  3  4  2  0
  4  5  1  0
  5  6  2  0
  6  7  1  0
  7  8  1  0
  8  9  2  0
  9 10  1  0
 10 11  2  0
 11 12  1  0
 12 13  1  0
 11 14  1  0
 14 15  2  0
  6 16  1  0
 16 17  2  0
 17 18  1  0
 18 19  2  0
 19 20  1  0
 20 21  2  0
 21 22  1  0
 22 23  1  0
 23 24  1  0
  2 25  2  0
 21  3  1  0
 18  4  1  0
 15  8  1  0
 24 20  1  0
  1 26  1  0
  1 27  1  0
  1 28  1  0
  5 29  1  0
  7 30  1  0
  9 31  1  0
 10 32  1  0
 13 33  1  0
 13 34  1  0
 13 35  1  0
 14 36  1  0
 15 37  1  0
 16 38  1  0
 17 39  1  0
 19 40  1  0
 22 41  1  0
 22 42  1  0
 23 43  1  0
 23 44  1  0
 24 45  1  0
 24 46  1  0
M  END
