
     RDKit          3D

 38 40  0  0  0  0  0  0  0  0999 V2000
   -3.1969    2.4510   -0.0895 C   0  0  0  0  0  0  0  0  0  0  0  0
   -2.7201    1.3921   -1.0476 C   0  0  0  0  0  0  0  0  0  0  0  0
   -1.6109    0.5251   -0.6001 C   0  0  0  0  0  0  0  0  0  0  0  0
   -0.2790    1.0072   -0.4879 C   0  0  0  0  0  0  0  0  0  0  0  0
    0.0937    2.3204   -0.8509 C   0  0  0  0  0  0  0  0  0  0  0  0
    1.4062    2.7679   -0.7254 C   0  0  0  0  0  0  0  0  0  0  0  0
    2.3871    1.9120   -0.2399 C   0  0  0  0  0  0  0  0  0  0  0  0
    2.0781    0.5912    0.1247 C   0  0  0  0  0  0  0  0  0  0  0  0
    3.0899   -0.2963    0.5848 N   0  0  0  0  0  0  0  0  0  0  0  0
    3.8490   -0.8483   -0.5416 C   0  0  0  0  0  0  0  0  0  0  0  0
    3.9169    0.2445    1.6641 C   0  0  0  0  0  0  0  0  0  0  0  0
    0.7365    0.1251   -0.0052 C   0  0  0  0  0  0  0  0  0  0  0  0
    0.3832   -1.2027    0.3331 C   0  0  0  0  0  0  0  0  0  0  0  0
   -0.9231   -1.6422    0.1978 C   0  0  0  0  0  0  0  0  0  0  0  0
   -1.9176   -0.7880   -0.2657 C   0  0  0  0  0  0  0  0  0  0  0  0
   -3.2279   -1.5081   -0.3643 C   0  0  0  0  0  0  0  0  0  0  0  0
   -2.9673   -2.7309    0.5271 C   0  0  0  0  0  0  0  0  0  0  0  0
   -1.4615   -3.0144    0.4524 C   0  0  0  0  0  0  0  0  0  0  0  0
   -3.2365    1.2103   -2.1454 O   0  0  0  0  0  0  0  0  0  0  0  0
   -4.2515    2.2745    0.1389 H   0  0  0  0  0  0  0  0  0  0  0  0
   -2.6347    2.4249    0.8481 H   0  0  0  0  0  0  0  0  0  0  0  0
   -3.0737    3.4358   -0.5473 H   0  0  0  0  0  0  0  0  0  0  0  0
   -0.6364    3.0160   -1.2594 H   0  0  0  0  0  0  0  0  0  0  0  0
    1.6659    3.7817   -1.0190 H   0  0  0  0  0  0  0  0  0  0  0  0
    3.4071    2.2787   -0.1723 H   0  0  0  0  0  0  0  0  0  0  0  0
    4.5361   -1.6216   -0.1805 H   0  0  0  0  0  0  0  0  0  0  0  0
    4.4423   -0.0785   -1.0486 H   0  0  0  0  0  0  0  0  0  0  0  0
    3.1860   -1.3234   -1.2738 H   0  0  0  0  0  0  0  0  0  0  0  0
    3.2961    0.6683    2.4618 H   0  0  0  0  0  0  0  0  0  0  0  0
    4.5065   -0.5639    2.1105 H   0  0  0  0  0  0  0  0  0  0  0  0
    4.6171    1.0089    1.3097 H   0  0  0  0  0  0  0  0  0  0  0  0
    1.1418   -1.8920    0.6976 H   0  0  0  0  0  0  0  0  0  0  0  0
   -3.4160   -1.8078   -1.4005 H   0  0  0  0  0  0  0  0  0  0  0  0
   -4.0669   -0.9183    0.0152 H   0  0  0  0  0  0  0  0  0  0  0  0
   -3.2354   -2.4830    1.5638 H   0  0  0  0  0  0  0  0  0  0  0  0
   -3.5713   -3.5963    0.2370 H   0  0  0  0  0  0  0  0  0  0  0  0
   -1.2235   -3.6746   -0.3879 H   0  0  0  0  0  0  0  0  0  0  0  0
   -1.0893   -3.4451    1.3861 H   0  0  0  0  0  0  0  0  0  0  0  0
  1  2  1  0
  2  3  1  0
  3  4  2  0
  4  5  1  0
  5  6  2  0
  6  7  1  0
  7  8  2  0
  8  9  1  0
  9 10  1  0
  9 11  1  0
  8 12  1  0
 12 13  2  0
 13 14  1  0
 14 15  2  0
 15 16  1  0
 16 17  1  0
 17 18  1  0
  2 19  2  0
 15  3  1  0
 12  4  1  0
 18 14  1  0
  1 20  1  0
  1 21  1  0
  1 22  1  0
  5 23  1  0
  6 24  1  0
  7 25  1  0
 10 26  1  0
 10 27  1  0
 10 28  1  0
 11 29  1  0
 11 30  1  0
 11 31  1  0
 13 32  1  0
 16 33  1  0
 16 34  1  0
 17 35  1  0
 17 36  1  0
 18 37  1  0
 18 38  1  0
M  END
