
     RDKit          3D

 43 45  0  0  0  0  0  0  0  0999 V2000
    6.9282   -0.1609   -1.0481 C   0  0  0  0  0  0  0  0  0  0  0  0
    6.2245   -0.5728    0.2184 C   0  0  0  0  0  0  0  0  0  0  0  0
    4.7313   -0.5764    0.2482 C   0  0  0  0  0  0  0  0  0  0  0  0
    4.0876   -0.9532    1.4331 C   0  0  0  0  0  0  0  0  0  0  0  0
    2.6910   -0.9719    1.5068 C   0  0  0  0  0  0  0  0  0  0  0  0
    1.9144   -0.6032    0.4026 C   0  0  0  0  0  0  0  0  0  0  0  0
    0.4513   -0.6646    0.5114 C   0  0  0  0  0  0  0  0  0  0  0  0
   -0.3846    0.2260   -0.0485 C   0  0  0  0  0  0  0  0  0  0  0  0
   -1.7845    0.2913   -0.0188 N   0  0  0  0  0  0  0  0  0  0  0  0
   -2.4277    1.5567   -0.2737 C   0  0  0  0  0  0  0  0  0  0  0  0
   -3.6382    1.6202   -0.9880 C   0  0  0  0  0  0  0  0  0  0  0  0
   -4.2667    2.8432   -1.2399 C   0  0  0  0  0  0  0  0  0  0  0  0
   -3.6977    4.0275   -0.7800 C   0  0  0  0  0  0  0  0  0  0  0  0
   -2.5018    3.9903   -0.0681 C   0  0  0  0  0  0  0  0  0  0  0  0
   -1.8728    2.7669    0.1821 C   0  0  0  0  0  0  0  0  0  0  0  0
   -2.5587   -0.8944    0.2338 C   0  0  0  0  0  0  0  0  0  0  0  0
   -3.6345   -0.8646    1.1386 C   0  0  0  0  0  0  0  0  0  0  0  0
   -4.3974   -2.0084    1.3870 C   0  0  0  0  0  0  0  0  0  0  0  0
   -4.0996   -3.2007    0.7313 C   0  0  0  0  0  0  0  0  0  0  0  0
   -3.0414   -3.2503   -0.1732 C   0  0  0  0  0  0  0  0  0  0  0  0
   -2.2780   -2.1062   -0.4206 C   0  0  0  0  0  0  0  0  0  0  0  0
    2.5617   -0.2427   -0.7863 C   0  0  0  0  0  0  0  0  0  0  0  0
    3.9601   -0.2235   -0.8642 C   0  0  0  0  0  0  0  0  0  0  0  0
    6.8589   -0.9032    1.2184 O   0  0  0  0  0  0  0  0  0  0  0  0
    6.6659    0.8672   -1.3108 H   0  0  0  0  0  0  0  0  0  0  0  0
    8.0102   -0.2032   -0.8879 H   0  0  0  0  0  0  0  0  0  0  0  0
    6.6790   -0.8482   -1.8606 H   0  0  0  0  0  0  0  0  0  0  0  0
    4.6698   -1.2367    2.3085 H   0  0  0  0  0  0  0  0  0  0  0  0
    2.2178   -1.2698    2.4405 H   0  0  0  0  0  0  0  0  0  0  0  0
    0.0564   -1.4729    1.1216 H   0  0  0  0  0  0  0  0  0  0  0  0
    0.0369    1.0616   -0.6043 H   0  0  0  0  0  0  0  0  0  0  0  0
   -4.0950    0.7113   -1.3729 H   0  0  0  0  0  0  0  0  0  0  0  0
   -5.1990    2.8670   -1.7980 H   0  0  0  0  0  0  0  0  0  0  0  0
   -4.1870    4.9783   -0.9743 H   0  0  0  0  0  0  0  0  0  0  0  0
   -2.0588    4.9120    0.3001 H   0  0  0  0  0  0  0  0  0  0  0  0
   -0.9547    2.7658    0.7644 H   0  0  0  0  0  0  0  0  0  0  0  0
   -3.8728    0.0548    1.6686 H   0  0  0  0  0  0  0  0  0  0  0  0
   -5.2214   -1.9661    2.0943 H   0  0  0  0  0  0  0  0  0  0  0  0
   -4.6932   -4.0905    0.9241 H   0  0  0  0  0  0  0  0  0  0  0  0
   -2.8109   -4.1775   -0.6911 H   0  0  0  0  0  0  0  0  0  0  0  0
   -1.4701   -2.1598   -1.1460 H   0  0  0  0  0  0  0  0  0  0  0  0
    1.9851    0.0166   -1.6720 H   0  0  0  0  0  0  0  0  0  0  0  0
    4.4163    0.0646   -1.8065 H   0  0  0  0  0  0  0  0  0  0  0  0
  1  2  1  0
  2  3  1  0
  3  4  2  0
  4  5  1  0
  5  6  2  0
  6  7  1  0
  7  8  2  0
  8  9  1  0
  9 10  1  0
 10 11  2  0
 11 12  1  0
 12 13  2  0
 13 14  1  0
 14 15  2  0
  9 16  1  0
 16 17  2  0
 17 18  1  0
 18 19  2  0
 19 20  1  0
 20 21  2  0
  6 22  1  0
 22 23  2  0
  2 24  2  0
 23  3  1  0
 15 10  1  0
 21 16  1  0
  1 25  1  0
  1 26  1  0
  1 27  1  0
  4 28  1  0
  5 29  1  0
  7 30  1  0
  8 31  1  0
 11 32  1  0
 12 33  1  0
 13 34  1  0
 14 35  1  0
 15 36  1  0
 17 37  1  0
 18 38  1  0
 19 39  1  0
 20 40  1  0
 21 41  1  0
 22 42  1  0
 23 43  1  0
M  END
