
     RDKit          3D

 41 47  0  0  0  0  0  0  0  0999 V2000
    1.9296    0.0043   -2.0624 Si  0  0  0  0  0  4  0  0  0  0  0  0
    2.5597    0.8072   -0.4796 C   0  0  0  0  0  0  0  0  0  0  0  0
    1.6033    0.9492    0.4599 C   0  0  0  0  0  0  0  0  0  0  0  0
    0.2831    0.4419    0.0495 C   0  0  0  0  0  0  0  0  0  0  0  0
   -0.8553    0.4741    0.8423 C   0  0  0  0  0  0  0  0  0  0  0  0
   -2.0611   -0.0548    0.3233 C   0  0  0  0  0  0  0  0  0  0  0  0
   -3.3046   -0.1033    0.9877 C   0  0  0  0  0  0  0  0  0  0  0  0
   -3.5829    0.3527    2.2593 C   0  0  0  0  0  0  0  0  0  0  0  0
   -4.9226    0.1121    2.5183 N   0  0  0  0  0  0  0  0  0  0  0  0
   -5.5169   -0.4952    1.4316 C   0  0  0  0  0  0  0  0  0  0  0  0
   -4.5180   -0.6169    0.5120 C   0  0  0  0  0  0  0  0  0  0  0  0
   -4.5533   -1.1710   -0.8018 C   0  0  0  0  0  0  0  0  0  0  0  0
   -5.6864   -1.7235   -1.4219 C   0  0  0  0  0  0  0  0  0  0  0  0
   -5.3545   -2.1603   -2.6845 C   0  0  0  0  0  0  0  0  0  0  0  0
   -3.7040   -1.8882   -3.0666 S   0  0  0  0  0  0  0  0  0  0  0  0
   -3.3642   -1.1589   -1.5213 C   0  0  0  0  0  0  0  0  0  0  0  0
   -2.1253   -0.6183   -0.9974 C   0  0  0  0  0  0  0  0  0  0  0  0
   -0.9509   -0.6347   -1.7799 C   0  0  0  0  0  0  0  0  0  0  0  0
    0.2301   -0.1090   -1.2532 C   0  0  0  0  0  0  0  0  0  0  0  0
    3.8999    1.2011   -0.3077 C   0  0  0  0  0  0  0  0  0  0  0  0
    4.7284    2.3535   -1.3139 S   0  0  0  0  0  0  0  0  0  0  0  0
    6.2118    2.2463   -0.4136 C   0  0  0  0  0  0  0  0  0  0  0  0
    6.0185    1.3604    0.5833 C   0  0  0  0  0  0  0  0  0  0  0  0
    6.6971    0.7575    1.6702 C   0  0  0  0  0  0  0  0  0  0  0  0
    5.7862   -0.1276    2.2861 C   0  0  0  0  0  0  0  0  0  0  0  0
    4.5496   -0.1216    1.6436 N   0  0  0  0  0  0  0  0  0  0  0  0
    4.7670    0.7892    0.6475 C   0  0  0  0  0  0  0  0  0  0  0  0
    2.5158   -1.3408   -2.3001 H   0  0  0  0  0  0  0  0  0  0  0  0
    1.9258    0.9170   -3.2350 H   0  0  0  0  0  0  0  0  0  0  0  0
    1.7490    1.3979    1.4342 H   0  0  0  0  0  0  0  0  0  0  0  0
   -0.8204    0.8978    1.8400 H   0  0  0  0  0  0  0  0  0  0  0  0
   -2.9690    0.8270    3.0124 H   0  0  0  0  0  0  0  0  0  0  0  0
   -5.3954    0.3493    3.3810 H   0  0  0  0  0  0  0  0  0  0  0  0
   -6.5636   -0.7644    1.4385 H   0  0  0  0  0  0  0  0  0  0  0  0
   -6.6783   -1.8061   -0.9978 H   0  0  0  0  0  0  0  0  0  0  0  0
   -6.0014   -2.6304   -3.4123 H   0  0  0  0  0  0  0  0  0  0  0  0
   -0.9536   -1.0488   -2.7847 H   0  0  0  0  0  0  0  0  0  0  0  0
    7.0824    2.8253   -0.6842 H   0  0  0  0  0  0  0  0  0  0  0  0
    7.7183    0.9233    1.9865 H   0  0  0  0  0  0  0  0  0  0  0  0
    5.9264   -0.7731    3.1437 H   0  0  0  0  0  0  0  0  0  0  0  0
    3.7000   -0.6403    1.8314 H   0  0  0  0  0  0  0  0  0  0  0  0
  1  2  1  0
  2  3  2  0
  3  4  1  0
  4  5  2  0
  5  6  1  0
  6  7  1  0
  7  8  2  0
  8  9  1  0
  9 10  1  0
 10 11  2  0
 11 12  1  0
 12 13  1  0
 13 14  2  0
 14 15  1  0
 15 16  1  0
 16 17  1  0
 17 18  1  0
 18 19  2  0
  2 20  1  0
 20 21  1  0
 21 22  1  0
 22 23  2  0
 23 24  1  0
 24 25  2  0
 25 26  1  0
 26 27  1  0
 19  1  1  0
 27 20  2  0
 19  4  1  0
 27 23  1  0
 17  6  2  0
 11  7  1  0
 16 12  2  0
  1 28  1  0
  1 29  1  0
  3 30  1  0
  5 31  1  0
  8 32  1  0
  9 33  1  0
 10 34  1  0
 13 35  1  0
 14 36  1  0
 18 37  1  0
 22 38  1  0
 24 39  1  0
 25 40  1  0
 26 41  1  0
M  END
