
     RDKit          3D

 44 46  0  0  0  0  0  0  0  0999 V2000
   -4.0526   -1.7938    1.9289 C   0  0  0  0  0  0  0  0  0  0  0  0
   -3.4550   -1.3211    0.5981 C   0  0  0  0  0  0  0  0  0  0  0  0
   -4.4605   -0.5464   -0.2346 C   0  0  0  0  0  0  0  0  0  0  0  0
   -4.8940   -1.0485   -1.4744 C   0  0  0  0  0  0  0  0  0  0  0  0
   -5.8179   -0.3359   -2.2449 C   0  0  0  0  0  0  0  0  0  0  0  0
   -6.3215    0.8834   -1.7904 C   0  0  0  0  0  0  0  0  0  0  0  0
   -5.9009    1.3927   -0.5643 C   0  0  0  0  0  0  0  0  0  0  0  0
   -4.9807    0.6793    0.1998 C   0  0  0  0  0  0  0  0  0  0  0  0
   -4.5993    1.1889    1.3787 F   0  0  0  0  0  0  0  0  0  0  0  0
   -2.2024   -0.5773    0.7246 N   0  0  0  0  0  0  0  0  0  0  0  0
   -1.3188   -0.2739   -0.2731 C   0  0  0  0  0  0  0  0  0  0  0  0
   -0.2905    0.3814    0.3708 C   0  0  0  0  0  0  0  0  0  0  0  0
    0.9171    0.9374   -0.2170 C   0  0  0  0  0  0  0  0  0  0  0  0
    1.1931    0.8355   -1.4092 O   0  0  0  0  0  0  0  0  0  0  0  0
    1.7296    1.5773    0.6952 N   0  0  0  0  0  0  0  0  0  0  0  0
    2.9537    2.2494    0.3258 C   0  0  0  0  0  0  0  0  0  0  0  0
    4.1872    1.3780    0.5380 C   0  0  0  0  0  0  0  0  0  0  0  0
    4.2557    0.2011   -0.4336 C   0  0  0  0  0  0  0  0  0  0  0  0
    5.4808   -0.5588   -0.2680 N   0  0  0  0  0  0  0  0  0  0  0  0
    6.6444   -0.3825   -0.9626 C   0  0  0  0  0  0  0  0  0  0  0  0
    7.5031   -1.3306   -0.4556 C   0  0  0  0  0  0  0  0  0  0  0  0
    6.8881   -2.0732    0.5196 N   0  0  0  0  0  0  0  0  0  0  0  0
    5.6687   -1.5907    0.6062 C   0  0  0  0  0  0  0  0  0  0  0  0
   -0.5706    0.4350    1.7162 N   0  0  0  0  0  0  0  0  0  0  0  0
   -1.7330   -0.1677    1.9227 N   0  0  0  0  0  0  0  0  0  0  0  0
   -4.9646   -2.3774    1.7582 H   0  0  0  0  0  0  0  0  0  0  0  0
   -3.3419   -2.4323    2.4660 H   0  0  0  0  0  0  0  0  0  0  0  0
   -4.3118   -0.9584    2.5912 H   0  0  0  0  0  0  0  0  0  0  0  0
   -3.1690   -2.2293    0.0473 H   0  0  0  0  0  0  0  0  0  0  0  0
   -4.5155   -1.9954   -1.8553 H   0  0  0  0  0  0  0  0  0  0  0  0
   -6.1451   -0.7317   -3.2051 H   0  0  0  0  0  0  0  0  0  0  0  0
   -7.0397    1.4354   -2.3923 H   0  0  0  0  0  0  0  0  0  0  0  0
   -6.2849    2.3394   -0.1946 H   0  0  0  0  0  0  0  0  0  0  0  0
   -1.4868   -0.5231   -1.3111 H   0  0  0  0  0  0  0  0  0  0  0  0
    1.3925    1.6326    1.6529 H   0  0  0  0  0  0  0  0  0  0  0  0
    2.8927    2.5900   -0.7134 H   0  0  0  0  0  0  0  0  0  0  0  0
    3.0237    3.1368    0.9632 H   0  0  0  0  0  0  0  0  0  0  0  0
    4.2086    1.0106    1.5719 H   0  0  0  0  0  0  0  0  0  0  0  0
    5.0799    2.0033    0.4107 H   0  0  0  0  0  0  0  0  0  0  0  0
    4.2208    0.5463   -1.4732 H   0  0  0  0  0  0  0  0  0  0  0  0
    3.4252   -0.4965   -0.2815 H   0  0  0  0  0  0  0  0  0  0  0  0
    6.7655    0.3719   -1.7274 H   0  0  0  0  0  0  0  0  0  0  0  0
    8.5306   -1.5177   -0.7411 H   0  0  0  0  0  0  0  0  0  0  0  0
    4.8961   -1.9435    1.2774 H   0  0  0  0  0  0  0  0  0  0  0  0
  1  2  1  0
  2  3  1  0
  3  4  2  0
  4  5  1  0
  5  6  2  0
  6  7  1  0
  7  8  2  0
  8  9  1  0
  2 10  1  0
 10 11  1  0
 11 12  2  0
 12 13  1  0
 13 14  2  0
 13 15  1  0
 15 16  1  0
 16 17  1  0
 17 18  1  0
 18 19  1  0
 19 20  1  0
 20 21  2  0
 21 22  1  0
 22 23  2  0
 12 24  1  0
 24 25  2  0
  8  3  1  0
 25 10  1  0
 23 19  1  0
  1 26  1  0
  1 27  1  0
  1 28  1  0
  2 29  1  0
  4 30  1  0
  5 31  1  0
  6 32  1  0
  7 33  1  0
 11 34  1  0
 15 35  1  0
 16 36  1  0
 16 37  1  0
 17 38  1  0
 17 39  1  0
 18 40  1  0
 18 41  1  0
 20 42  1  0
 21 43  1  0
 23 44  1  0
M  END
