
     RDKit          3D

 46 47  0  0  0  0  0  0  0  0999 V2000
   -3.3708    2.2736    1.1166 C   0  0  0  0  0  0  0  0  0  0  0  0
   -3.8435    0.8554    0.7610 C   0  0  0  0  0  0  0  0  0  0  0  0
   -2.9873   -0.1936    1.4854 C   0  0  0  0  0  0  0  0  0  0  0  0
   -1.6157   -0.2472    1.0160 N   0  0  0  0  0  0  0  0  0  0  0  0
   -0.5736    0.3316    1.7093 C   0  0  0  0  0  0  0  0  0  0  0  0
   -0.7059    0.9092    2.7817 O   0  0  0  0  0  0  0  0  0  0  0  0
    0.7759    0.2004    1.0950 C   0  0  0  0  0  0  0  0  0  0  0  0
    0.9584    0.1376   -0.2905 C   0  0  0  0  0  0  0  0  0  0  0  0
    2.2481    0.0184   -0.8215 C   0  0  0  0  0  0  0  0  0  0  0  0
    3.3776   -0.0309    0.0133 C   0  0  0  0  0  0  0  0  0  0  0  0
    4.7318   -0.1529   -0.5511 C   0  0  0  0  0  0  0  0  0  0  0  0
    5.7408    0.7659   -0.2169 C   0  0  0  0  0  0  0  0  0  0  0  0
    7.0264    0.6517   -0.7532 C   0  0  0  0  0  0  0  0  0  0  0  0
    7.3252   -0.3853   -1.6330 C   0  0  0  0  0  0  0  0  0  0  0  0
    6.3402   -1.3074   -1.9771 C   0  0  0  0  0  0  0  0  0  0  0  0
    5.0548   -1.1911   -1.4409 C   0  0  0  0  0  0  0  0  0  0  0  0
    3.1768    0.0509    1.4011 C   0  0  0  0  0  0  0  0  0  0  0  0
    1.8908    0.1702    1.9380 C   0  0  0  0  0  0  0  0  0  0  0  0
   -3.8960    0.7096   -0.7800 C   0  0  0  0  0  0  0  0  0  0  0  0
   -4.5129   -0.4751   -1.3885 N   0  0  0  0  0  0  0  0  0  0  0  0
   -5.8038   -0.8356   -0.8185 C   0  0  0  0  0  0  0  0  0  0  0  0
   -3.6351   -1.6247   -1.5325 C   0  0  0  0  0  0  0  0  0  0  0  0
   -4.0623    3.0223    0.7151 H   0  0  0  0  0  0  0  0  0  0  0  0
   -3.3304    2.4118    2.2022 H   0  0  0  0  0  0  0  0  0  0  0  0
   -2.3777    2.4842    0.7064 H   0  0  0  0  0  0  0  0  0  0  0  0
   -4.8642    0.7685    1.1551 H   0  0  0  0  0  0  0  0  0  0  0  0
   -3.4116   -1.1932    1.3601 H   0  0  0  0  0  0  0  0  0  0  0  0
   -2.9938    0.0069    2.5633 H   0  0  0  0  0  0  0  0  0  0  0  0
   -1.4179   -0.8142    0.2043 H   0  0  0  0  0  0  0  0  0  0  0  0
    0.1175    0.2134   -0.9735 H   0  0  0  0  0  0  0  0  0  0  0  0
    2.3710   -0.0126   -1.9031 H   0  0  0  0  0  0  0  0  0  0  0  0
    5.5266    1.5907    0.4600 H   0  0  0  0  0  0  0  0  0  0  0  0
    7.7918    1.3750   -0.4843 H   0  0  0  0  0  0  0  0  0  0  0  0
    8.3250   -0.4748   -2.0496 H   0  0  0  0  0  0  0  0  0  0  0  0
    6.5712   -2.1200   -2.6609 H   0  0  0  0  0  0  0  0  0  0  0  0
    4.3042   -1.9298   -1.7146 H   0  0  0  0  0  0  0  0  0  0  0  0
    4.0268    0.0145    2.0802 H   0  0  0  0  0  0  0  0  0  0  0  0
    1.7619    0.2356    3.0168 H   0  0  0  0  0  0  0  0  0  0  0  0
   -2.8910    0.8518   -1.1996 H   0  0  0  0  0  0  0  0  0  0  0  0
   -4.4673    1.5667   -1.1638 H   0  0  0  0  0  0  0  0  0  0  0  0
   -6.3011   -1.5865   -1.4427 H   0  0  0  0  0  0  0  0  0  0  0  0
   -5.7136   -1.2454    0.1931 H   0  0  0  0  0  0  0  0  0  0  0  0
   -6.4711    0.0327   -0.7851 H   0  0  0  0  0  0  0  0  0  0  0  0
   -2.6841   -1.3380   -1.9948 H   0  0  0  0  0  0  0  0  0  0  0  0
   -3.4222   -2.1249   -0.5849 H   0  0  0  0  0  0  0  0  0  0  0  0
   -4.0899   -2.3651   -2.2006 H   0  0  0  0  0  0  0  0  0  0  0  0
  1  2  1  0
  2  3  1  0
  3  4  1  0
  4  5  1  0
  5  6  2  0
  5  7  1  0
  7  8  2  0
  8  9  1  0
  9 10  2  0
 10 11  1  0
 11 12  2  0
 12 13  1  0
 13 14  2  0
 14 15  1  0
 15 16  2  0
 10 17  1  0
 17 18  2  0
  2 19  1  0
 19 20  1  0
 20 21  1  0
 20 22  1  0
 18  7  1  0
 16 11  1  0
  1 23  1  0
  1 24  1  0
  1 25  1  0
  2 26  1  0
  3 27  1  0
  3 28  1  0
  4 29  1  0
  8 30  1  0
  9 31  1  0
 12 32  1  0
 13 33  1  0
 14 34  1  0
 15 35  1  0
 16 36  1  0
 17 37  1  0
 18 38  1  0
 19 39  1  0
 19 40  1  0
 21 41  1  0
 21 42  1  0
 21 43  1  0
 22 44  1  0
 22 45  1  0
 22 46  1  0
M  END
