
     RDKit          3D

 35 37  0  0  0  0  0  0  0  0999 V2000
   -3.8993   -0.4146    0.7830 C   0  0  0  0  0  0  0  0  0  0  0  0
   -3.3056    0.2048   -0.4813 C   0  0  0  0  0  0  0  0  0  0  0  0
   -3.7944    1.6529   -0.7058 C   0  0  0  0  0  0  0  0  0  0  0  0
   -3.7722    2.4470    0.4745 O   0  0  0  0  0  0  0  0  0  0  0  0
   -1.8450    0.0834   -0.4838 N   0  0  0  0  0  0  0  0  0  0  0  0
   -1.1805   -1.0547   -1.1678 C   0  0  0  0  0  0  0  0  0  0  0  0
    0.2172   -0.8313   -0.7466 C   0  0  0  0  0  0  0  0  0  0  0  0
    0.2950    0.2457    0.0921 C   0  0  0  0  0  0  0  0  0  0  0  0
    1.5739    0.4437    0.4857 N   0  0  0  0  0  0  0  0  0  0  0  0
    2.1139    1.4077    1.3300 C   0  0  0  0  0  0  0  0  0  0  0  0
    3.4355    1.4045    1.5746 C   0  0  0  0  0  0  0  0  0  0  0  0
    4.2793    0.3871    0.9475 C   0  0  0  0  0  0  0  0  0  0  0  0
    3.7461   -0.5467    0.1280 C   0  0  0  0  0  0  0  0  0  0  0  0
    2.3411   -0.5523   -0.1382 C   0  0  0  0  0  0  0  0  0  0  0  0
    1.5095   -1.3620   -0.9145 C   0  0  0  0  0  0  0  0  0  0  0  0
    1.9040   -2.5327   -1.7375 C   0  0  0  0  0  0  0  0  0  0  0  0
    5.6810    0.3954    1.2153 C   0  0  0  0  0  0  0  0  0  0  0  0
    6.8211    0.4006    1.4319 N   0  0  0  0  0  0  0  0  0  0  0  0
   -0.9750    0.8392    0.3128 C   0  0  0  0  0  0  0  0  0  0  0  0
   -1.2538    1.7877    1.0272 O   0  0  0  0  0  0  0  0  0  0  0  0
   -3.6195   -1.4708    0.8630 H   0  0  0  0  0  0  0  0  0  0  0  0
   -4.9924   -0.3560    0.7683 H   0  0  0  0  0  0  0  0  0  0  0  0
   -3.5409    0.0851    1.6891 H   0  0  0  0  0  0  0  0  0  0  0  0
   -3.6497   -0.3751   -1.3474 H   0  0  0  0  0  0  0  0  0  0  0  0
   -3.2008    2.1560   -1.4768 H   0  0  0  0  0  0  0  0  0  0  0  0
   -4.8345    1.6330   -1.0483 H   0  0  0  0  0  0  0  0  0  0  0  0
   -2.8534    2.4201    0.8216 H   0  0  0  0  0  0  0  0  0  0  0  0
   -1.5870   -1.9944   -0.7850 H   0  0  0  0  0  0  0  0  0  0  0  0
   -1.3264   -0.9591   -2.2464 H   0  0  0  0  0  0  0  0  0  0  0  0
    1.4317    2.1317    1.7611 H   0  0  0  0  0  0  0  0  0  0  0  0
    3.8877    2.1436    2.2293 H   0  0  0  0  0  0  0  0  0  0  0  0
    4.3684   -1.3050   -0.3403 H   0  0  0  0  0  0  0  0  0  0  0  0
    1.0377   -2.9745   -2.2402 H   0  0  0  0  0  0  0  0  0  0  0  0
    2.6254   -2.2354   -2.5053 H   0  0  0  0  0  0  0  0  0  0  0  0
    2.3617   -3.3046   -1.1108 H   0  0  0  0  0  0  0  0  0  0  0  0
  1  2  1  0
  2  3  1  0
  3  4  1  0
  2  5  1  0
  5  6  1  0
  6  7  1  0
  7  8  2  0
  8  9  1  0
  9 10  1  0
 10 11  2  0
 11 12  1  0
 12 13  2  0
 13 14  1  0
 14 15  2  0
 15 16  1  0
 12 17  1  0
 17 18  3  0
  8 19  1  0
 19 20  2  0
 19  5  1  0
 15  7  1  0
 14  9  1  0
  1 21  1  0
  1 22  1  0
  1 23  1  0
  2 24  1  0
  3 25  1  0
  3 26  1  0
  4 27  1  0
  6 28  1  0
  6 29  1  0
 10 30  1  0
 11 31  1  0
 13 32  1  0
 16 33  1  0
 16 34  1  0
 16 35  1  0
M  END
