
     RDKit          3D

 34 36  0  0  0  0  0  0  0  0999 V2000
   -3.5249    1.4127    1.2433 C   0  0  0  0  0  0  0  0  0  0  0  0
   -3.0602    0.4341    0.1651 C   0  0  0  0  0  0  0  0  0  0  0  0
   -3.6199   -0.9772    0.4221 C   0  0  0  0  0  0  0  0  0  0  0  0
   -3.4537   -1.8044   -0.7318 O   0  0  0  0  0  0  0  0  0  0  0  0
   -1.6042    0.4264    0.0290 N   0  0  0  0  0  0  0  0  0  0  0  0
   -0.9631    0.4204   -1.3083 C   0  0  0  0  0  0  0  0  0  0  0  0
    0.4462    0.2100   -0.9225 C   0  0  0  0  0  0  0  0  0  0  0  0
    0.5473    0.0380    0.4303 C   0  0  0  0  0  0  0  0  0  0  0  0
    1.8370   -0.1731    0.7821 N   0  0  0  0  0  0  0  0  0  0  0  0
    2.3988   -0.4004    2.0348 C   0  0  0  0  0  0  0  0  0  0  0  0
    3.7256   -0.5815    2.1379 C   0  0  0  0  0  0  0  0  0  0  0  0
    4.5379   -0.5339    0.9326 C   0  0  0  0  0  0  0  0  0  0  0  0
    3.9961   -0.3144   -0.2815 C   0  0  0  0  0  0  0  0  0  0  0  0
    2.5866   -0.1209   -0.4045 C   0  0  0  0  0  0  0  0  0  0  0  0
    1.7332    0.1161   -1.4838 C   0  0  0  0  0  0  0  0  0  0  0  0
    2.1048    0.2365   -2.9149 C   0  0  0  0  0  0  0  0  0  0  0  0
   -0.7166    0.1195    1.0731 C   0  0  0  0  0  0  0  0  0  0  0  0
   -0.9736   -0.0451    2.2535 O   0  0  0  0  0  0  0  0  0  0  0  0
   -3.2466    1.0814    2.2484 H   0  0  0  0  0  0  0  0  0  0  0  0
   -3.0871    2.4040    1.0836 H   0  0  0  0  0  0  0  0  0  0  0  0
   -4.6149    1.5180    1.2213 H   0  0  0  0  0  0  0  0  0  0  0  0
   -3.4501    0.7955   -0.7952 H   0  0  0  0  0  0  0  0  0  0  0  0
   -4.6906   -0.9402    0.6499 H   0  0  0  0  0  0  0  0  0  0  0  0
   -3.1143   -1.4670    1.2599 H   0  0  0  0  0  0  0  0  0  0  0  0
   -4.0658   -1.4810   -1.4138 H   0  0  0  0  0  0  0  0  0  0  0  0
   -1.1391    1.3834   -1.7934 H   0  0  0  0  0  0  0  0  0  0  0  0
   -1.3585   -0.4084   -1.9006 H   0  0  0  0  0  0  0  0  0  0  0  0
    1.7272   -0.4222    2.8846 H   0  0  0  0  0  0  0  0  0  0  0  0
    4.2061   -0.7624    3.0926 H   0  0  0  0  0  0  0  0  0  0  0  0
    5.6077   -0.6835    1.0412 H   0  0  0  0  0  0  0  0  0  0  0  0
    4.6195   -0.2838   -1.1690 H   0  0  0  0  0  0  0  0  0  0  0  0
    2.5754   -0.6868   -3.2675 H   0  0  0  0  0  0  0  0  0  0  0  0
    2.8084    1.0624   -3.0601 H   0  0  0  0  0  0  0  0  0  0  0  0
    1.2257    0.4276   -3.5387 H   0  0  0  0  0  0  0  0  0  0  0  0
  1  2  1  0
  2  3  1  0
  3  4  1  0
  2  5  1  0
  5  6  1  0
  6  7  1  0
  7  8  2  0
  8  9  1  0
  9 10  1  0
 10 11  2  0
 11 12  1  0
 12 13  2  0
 13 14  1  0
 14 15  2  0
 15 16  1  0
  8 17  1  0
 17 18  2  0
 17  5  1  0
 15  7  1  0
 14  9  1  0
  1 19  1  0
  1 20  1  0
  1 21  1  0
  2 22  1  0
  3 23  1  0
  3 24  1  0
  4 25  1  0
  6 26  1  0
  6 27  1  0
 10 28  1  0
 11 29  1  0
 12 30  1  0
 13 31  1  0
 16 32  1  0
 16 33  1  0
 16 34  1  0
M  END
