
     RDKit          3D

 25 25  0  0  0  0  0  0  0  0999 V2000
    3.1035    1.4621   -0.1368 C   0  0  0  0  0  0  0  0  0  0  0  0
    2.3365    0.1543   -0.2526 C   0  0  0  0  0  0  0  0  0  0  0  0
    0.8957    0.3999   -0.1873 N   0  0  0  0  0  0  0  0  0  0  0  0
    0.0240   -0.4499   -0.8394 C   0  0  0  0  0  0  0  0  0  0  0  0
    0.3673   -1.2833   -1.6656 O   0  0  0  0  0  0  0  0  0  0  0  0
   -1.3997   -0.2791   -0.4755 C   0  0  0  0  0  0  0  0  0  0  0  0
   -1.9663    0.9999   -0.5963 C   0  0  0  0  0  0  0  0  0  0  0  0
   -3.3103    1.2023   -0.2809 C   0  0  0  0  0  0  0  0  0  0  0  0
   -4.0908    0.1324    0.1539 C   0  0  0  0  0  0  0  0  0  0  0  0
   -3.5289   -1.1408    0.2753 C   0  0  0  0  0  0  0  0  0  0  0  0
   -2.1821   -1.3533   -0.0394 C   0  0  0  0  0  0  0  0  0  0  0  0
   -1.5495   -2.9429    0.1931 Cl  0  0  0  0  0  0  0  0  0  0  0  0
    2.7219   -0.7692    0.9013 C   0  0  0  0  0  0  0  0  0  0  0  0
    2.1304   -0.8801    1.9659 O   0  0  0  0  0  0  0  0  0  0  0  0
    3.8599   -1.4557    0.6759 O   0  0  0  0  0  0  0  0  0  0  0  0
    2.8275    2.1477   -0.9450 H   0  0  0  0  0  0  0  0  0  0  0  0
    4.1838    1.2896   -0.1873 H   0  0  0  0  0  0  0  0  0  0  0  0
    2.8926    1.9655    0.8137 H   0  0  0  0  0  0  0  0  0  0  0  0
    2.5729   -0.3470   -1.1974 H   0  0  0  0  0  0  0  0  0  0  0  0
    0.5562    0.8192    0.6717 H   0  0  0  0  0  0  0  0  0  0  0  0
   -1.3686    1.8348   -0.9559 H   0  0  0  0  0  0  0  0  0  0  0  0
   -3.7511    2.1916   -0.3820 H   0  0  0  0  0  0  0  0  0  0  0  0
   -5.1395    0.2874    0.3982 H   0  0  0  0  0  0  0  0  0  0  0  0
   -4.1472   -1.9663    0.6211 H   0  0  0  0  0  0  0  0  0  0  0  0
    3.9621   -2.0191    1.4714 H   0  0  0  0  0  0  0  0  0  0  0  0
  1  2  1  0
  2  3  1  0
  3  4  1  0
  4  5  2  0
  4  6  1  0
  6  7  2  0
  7  8  1  0
  8  9  2  0
  9 10  1  0
 10 11  2  0
 11 12  1  0
  2 13  1  0
 13 14  2  0
 13 15  1  0
 11  6  1  0
  1 16  1  0
  1 17  1  0
  1 18  1  0
  2 19  1  0
  3 20  1  0
  7 21  1  0
  8 22  1  0
  9 23  1  0
 10 24  1  0
 15 25  1  0
M  END
