
     RDKit          3D

 44 46  0  0  0  0  0  0  0  0999 V2000
   -3.5468    2.6454    0.6561 C   0  0  0  0  0  0  0  0  0  0  0  0
   -3.5048    1.2420    0.0433 C   0  0  0  0  0  0  0  0  0  0  0  0
   -2.1984    0.6286    0.2178 N   0  0  0  0  0  0  0  0  0  0  0  0
   -1.1140    0.9816   -0.5517 C   0  0  0  0  0  0  0  0  0  0  0  0
   -1.1624    1.8166   -1.4467 O   0  0  0  0  0  0  0  0  0  0  0  0
    0.1408    0.2113   -0.1860 C   0  0  0  0  0  0  0  0  0  0  0  0
    1.3576    0.6860   -0.9768 C   0  0  0  0  0  0  0  0  0  0  0  0
    2.6621    0.0026   -0.5542 C   0  0  0  0  0  0  0  0  0  0  0  0
    2.7005   -1.4837   -0.9124 C   0  0  0  0  0  0  0  0  0  0  0  0
    3.9056   -2.0907   -0.4271 O   0  0  0  0  0  0  0  0  0  0  0  0
    5.0040   -1.3250   -0.7204 C   0  0  0  0  0  0  0  0  0  0  0  0
    6.2490   -1.9389   -0.5959 C   0  0  0  0  0  0  0  0  0  0  0  0
    7.4096   -1.2254   -0.9004 C   0  0  0  0  0  0  0  0  0  0  0  0
    7.3231    0.1012   -1.3264 C   0  0  0  0  0  0  0  0  0  0  0  0
    6.0768    0.7198   -1.4379 C   0  0  0  0  0  0  0  0  0  0  0  0
    4.9195    0.0115   -1.1202 C   0  0  0  0  0  0  0  0  0  0  0  0
    3.7323    0.6871   -1.2317 O   0  0  0  0  0  0  0  0  0  0  0  0
   -4.5701    0.3166    0.6053 C   0  0  0  0  0  0  0  0  0  0  0  0
   -5.3237   -0.4819   -0.2705 C   0  0  0  0  0  0  0  0  0  0  0  0
   -6.2916   -1.3615    0.2181 C   0  0  0  0  0  0  0  0  0  0  0  0
   -6.5142   -1.4623    1.5891 C   0  0  0  0  0  0  0  0  0  0  0  0
   -5.7666   -0.6874    2.4726 C   0  0  0  0  0  0  0  0  0  0  0  0
   -4.7976    0.1928    1.9857 C   0  0  0  0  0  0  0  0  0  0  0  0
   -4.5489    3.0803    0.5745 H   0  0  0  0  0  0  0  0  0  0  0  0
   -3.2618    2.6409    1.7138 H   0  0  0  0  0  0  0  0  0  0  0  0
   -2.8484    3.3153    0.1428 H   0  0  0  0  0  0  0  0  0  0  0  0
   -3.6722    1.3611   -1.0353 H   0  0  0  0  0  0  0  0  0  0  0  0
   -2.0925   -0.0601    0.9506 H   0  0  0  0  0  0  0  0  0  0  0  0
    0.3226    0.3394    0.8875 H   0  0  0  0  0  0  0  0  0  0  0  0
   -0.0549   -0.8486   -0.3799 H   0  0  0  0  0  0  0  0  0  0  0  0
    1.1929    0.5372   -2.0522 H   0  0  0  0  0  0  0  0  0  0  0  0
    1.4728    1.7715   -0.8540 H   0  0  0  0  0  0  0  0  0  0  0  0
    2.8142    0.1414    0.5252 H   0  0  0  0  0  0  0  0  0  0  0  0
    1.8704   -2.0250   -0.4499 H   0  0  0  0  0  0  0  0  0  0  0  0
    2.6454   -1.6414   -1.9973 H   0  0  0  0  0  0  0  0  0  0  0  0
    6.3142   -2.9741   -0.2736 H   0  0  0  0  0  0  0  0  0  0  0  0
    8.3806   -1.7054   -0.8103 H   0  0  0  0  0  0  0  0  0  0  0  0
    8.2266    0.6550   -1.5684 H   0  0  0  0  0  0  0  0  0  0  0  0
    6.0079    1.7544   -1.7620 H   0  0  0  0  0  0  0  0  0  0  0  0
   -5.1598   -0.4233   -1.3451 H   0  0  0  0  0  0  0  0  0  0  0  0
   -6.8708   -1.9689   -0.4728 H   0  0  0  0  0  0  0  0  0  0  0  0
   -7.2687   -2.1463    1.9688 H   0  0  0  0  0  0  0  0  0  0  0  0
   -5.9377   -0.7687    3.5431 H   0  0  0  0  0  0  0  0  0  0  0  0
   -4.2225    0.7791    2.6983 H   0  0  0  0  0  0  0  0  0  0  0  0
  1  2  1  0
  2  3  1  0
  3  4  1  0
  4  5  2  0
  4  6  1  0
  6  7  1  0
  7  8  1  0
  8  9  1  0
  9 10  1  0
 10 11  1  0
 11 12  2  0
 12 13  1  0
 13 14  2  0
 14 15  1  0
 15 16  2  0
 16 17  1  0
  2 18  1  0
 18 19  2  0
 19 20  1  0
 20 21  2  0
 21 22  1  0
 22 23  2  0
 17  8  1  0
 23 18  1  0
 16 11  1  0
  1 24  1  0
  1 25  1  0
  1 26  1  0
  2 27  1  0
  3 28  1  0
  6 29  1  0
  6 30  1  0
  7 31  1  0
  7 32  1  0
  8 33  1  0
  9 34  1  0
  9 35  1  0
 12 36  1  0
 13 37  1  0
 14 38  1  0
 15 39  1  0
 19 40  1  0
 20 41  1  0
 21 42  1  0
 22 43  1  0
 23 44  1  0
M  END
