
     RDKit          3D

 33 33  0  0  0  0  0  0  0  0999 V2000
   -5.6927   -1.9656   -0.1475 C   0  0  0  0  0  0  0  0  0  0  0  0
   -4.5707   -1.0714    0.2670 C   0  0  0  0  0  0  0  0  0  0  0  0
   -4.1374   -0.0314   -0.4617 C   0  0  0  0  0  0  0  0  0  0  0  0
   -3.0190    0.8066    0.0132 C   0  0  0  0  0  0  0  0  0  0  0  0
   -2.3994    0.6466    1.0537 O   0  0  0  0  0  0  0  0  0  0  0  0
   -2.7841    1.7710   -0.9071 O   0  0  0  0  0  0  0  0  0  0  0  0
   -1.7422    2.6877   -0.5711 C   0  0  0  0  0  0  0  0  0  0  0  0
   -0.3251    2.1571   -0.8276 C   0  0  0  0  0  0  0  0  0  0  0  0
    0.3298    2.5577   -1.7862 O   0  0  0  0  0  0  0  0  0  0  0  0
    0.0881    1.2367    0.1203 N   0  0  0  0  0  0  0  0  0  0  0  0
    1.3268    0.5713    0.1999 C   0  0  0  0  0  0  0  0  0  0  0  0
    2.3956    0.8028   -0.6649 C   0  0  0  0  0  0  0  0  0  0  0  0
    3.6010    0.1002   -0.5207 C   0  0  0  0  0  0  0  0  0  0  0  0
    3.7575   -0.8469    0.4938 C   0  0  0  0  0  0  0  0  0  0  0  0
    4.8959   -1.5778    0.7081 O   0  0  0  0  0  0  0  0  0  0  0  0
    5.9939   -1.3599   -0.1676 C   0  0  0  0  0  0  0  0  0  0  0  0
    2.6808   -1.0757    1.3629 C   0  0  0  0  0  0  0  0  0  0  0  0
    2.7896   -2.2312    2.6473 Cl  0  0  0  0  0  0  0  0  0  0  0  0
    1.4785   -0.3737    1.2183 C   0  0  0  0  0  0  0  0  0  0  0  0
   -6.4898   -1.9349    0.6015 H   0  0  0  0  0  0  0  0  0  0  0  0
   -5.3364   -2.9969   -0.2294 H   0  0  0  0  0  0  0  0  0  0  0  0
   -6.1193   -1.6739   -1.1124 H   0  0  0  0  0  0  0  0  0  0  0  0
   -4.0975   -1.3042    1.2200 H   0  0  0  0  0  0  0  0  0  0  0  0
   -4.5832    0.2290   -1.4146 H   0  0  0  0  0  0  0  0  0  0  0  0
   -1.8317    3.0267    0.4688 H   0  0  0  0  0  0  0  0  0  0  0  0
   -1.8823    3.5779   -1.1947 H   0  0  0  0  0  0  0  0  0  0  0  0
   -0.6132    0.9632    0.8120 H   0  0  0  0  0  0  0  0  0  0  0  0
    2.3299    1.5298   -1.4693 H   0  0  0  0  0  0  0  0  0  0  0  0
    4.3963    0.3240   -1.2246 H   0  0  0  0  0  0  0  0  0  0  0  0
    6.8072   -2.0218    0.1451 H   0  0  0  0  0  0  0  0  0  0  0  0
    6.3576   -0.3296   -0.0959 H   0  0  0  0  0  0  0  0  0  0  0  0
    5.7334   -1.6179   -1.1994 H   0  0  0  0  0  0  0  0  0  0  0  0
    0.6620   -0.5754    1.9075 H   0  0  0  0  0  0  0  0  0  0  0  0
  1  2  1  0
  2  3  2  3
  3  4  1  0
  4  5  2  0
  4  6  1  0
  6  7  1  0
  7  8  1  0
  8  9  2  0
  8 10  1  0
 10 11  1  0
 11 12  2  0
 12 13  1  0
 13 14  2  0
 14 15  1  0
 15 16  1  0
 14 17  1  0
 17 18  1  0
 17 19  2  0
 19 11  1  0
  1 20  1  0
  1 21  1  0
  1 22  1  0
  2 23  1  0
  3 24  1  0
  7 25  1  0
  7 26  1  0
 10 27  1  0
 12 28  1  0
 13 29  1  0
 16 30  1  0
 16 31  1  0
 16 32  1  0
 19 33  1  0
M  END
