
     RDKit          3D

 35 37  0  0  0  0  0  0  0  0999 V2000
   -1.9049    1.1979   -1.1192 C   0  0  0  0  0  0  0  0  0  0  0  0
   -0.6927    0.9350   -0.2241 C   0  0  0  0  0  0  0  0  0  0  0  0
   -0.2633    2.2005    0.5201 C   0  0  0  0  0  0  0  0  0  0  0  0
    0.4733    0.3191   -1.0143 C   0  0  0  0  0  0  0  0  0  0  0  0
    1.3025    0.7060   -2.0927 C   0  0  0  0  0  0  0  0  0  0  0  0
    2.2418   -0.2798   -2.4005 C   0  0  0  0  0  0  0  0  0  0  0  0
    3.2696   -0.3397   -3.3912 C   0  0  0  0  0  0  0  0  0  0  0  0
    3.9968    0.7051   -3.8341 C   0  0  0  0  0  0  0  0  0  0  0  0
    3.8527    2.0365   -3.3547 C   0  0  0  0  0  0  0  0  0  0  0  0
    3.7242    3.1247   -2.9718 N   0  0  0  0  0  0  0  0  0  0  0  0
    4.9931    0.4669   -4.8247 C   0  0  0  0  0  0  0  0  0  0  0  0
    5.7958    0.2490   -5.6335 N   0  0  0  0  0  0  0  0  0  0  0  0
    2.0339   -1.6799   -1.3669 S   0  0  0  0  0  0  0  0  0  0  0  0
    0.7886   -0.9425   -0.5559 C   0  0  0  0  0  0  0  0  0  0  0  0
   -0.0744   -1.2790    0.5143 C   0  0  0  0  0  0  0  0  0  0  0  0
   -0.2885   -2.5854    1.5142 S   0  0  0  0  0  0  0  0  0  0  0  0
   -1.5945   -1.7755    2.3573 C   0  0  0  0  0  0  0  0  0  0  0  0
   -2.2262   -2.4824    3.4260 C   0  0  0  0  0  0  0  0  0  0  0  0
   -2.7506   -1.9255    4.5358 C   0  0  0  0  0  0  0  0  0  0  0  0
   -2.7324   -0.5302    4.8117 C   0  0  0  0  0  0  0  0  0  0  0  0
   -2.7294    0.6101    5.0284 N   0  0  0  0  0  0  0  0  0  0  0  0
   -3.3379   -2.7815    5.5119 C   0  0  0  0  0  0  0  0  0  0  0  0
   -3.8134   -3.4982    6.2906 N   0  0  0  0  0  0  0  0  0  0  0  0
   -1.8380   -0.5186    1.8008 C   0  0  0  0  0  0  0  0  0  0  0  0
   -0.9438   -0.2335    0.7428 C   0  0  0  0  0  0  0  0  0  0  0  0
   -2.7633    1.5424   -0.5311 H   0  0  0  0  0  0  0  0  0  0  0  0
   -2.2171    0.2931   -1.6549 H   0  0  0  0  0  0  0  0  0  0  0  0
   -1.6822    1.9630   -1.8716 H   0  0  0  0  0  0  0  0  0  0  0  0
    0.6057    2.0174    1.1638 H   0  0  0  0  0  0  0  0  0  0  0  0
   -1.0704    2.5761    1.1594 H   0  0  0  0  0  0  0  0  0  0  0  0
    0.0110    2.9973   -0.1808 H   0  0  0  0  0  0  0  0  0  0  0  0
    1.2094    1.6519   -2.6131 H   0  0  0  0  0  0  0  0  0  0  0  0
    3.4911   -1.3308   -3.7914 H   0  0  0  0  0  0  0  0  0  0  0  0
   -2.2503   -3.5697    3.3323 H   0  0  0  0  0  0  0  0  0  0  0  0
   -2.6161    0.1602    2.1295 H   0  0  0  0  0  0  0  0  0  0  0  0
  1  2  1  0
  2  3  1  0
  2  4  1  0
  4  5  1  0
  5  6  2  0
  6  7  1  0
  7  8  2  3
  8  9  1  0
  9 10  3  0
  8 11  1  0
 11 12  3  0
  6 13  1  0
 13 14  1  0
 14 15  1  0
 15 16  1  0
 16 17  1  0
 17 18  1  0
 18 19  2  3
 19 20  1  0
 20 21  3  0
 19 22  1  0
 22 23  3  0
 17 24  2  0
 24 25  1  0
 25  2  1  0
 14  4  2  0
 25 15  2  0
  1 26  1  0
  1 27  1  0
  1 28  1  0
  3 29  1  0
  3 30  1  0
  3 31  1  0
  5 32  1  0
  7 33  1  0
 18 34  1  0
 24 35  1  0
M  END
