
     RDKit          3D

 47 52  0  0  0  0  0  0  0  0999 V2000
   -4.9527   -1.3627   -1.0057 C   0  0  0  0  0  0  0  0  0  0  0  0
   -4.2465   -0.5038    0.0495 C   0  0  0  0  0  0  0  0  0  0  0  0
   -4.8475   -0.7364    1.4404 C   0  0  0  0  0  0  0  0  0  0  0  0
   -4.2943    0.9789   -0.3282 C   0  0  0  0  0  0  0  0  0  0  0  0
   -5.4037    1.7973   -0.4911 C   0  0  0  0  0  0  0  0  0  0  0  0
   -5.1946    3.1315   -0.8448 C   0  0  0  0  0  0  0  0  0  0  0  0
   -3.8950    3.6294   -1.0305 C   0  0  0  0  0  0  0  0  0  0  0  0
   -2.7802    2.8016   -0.8651 C   0  0  0  0  0  0  0  0  0  0  0  0
   -2.9856    1.4770   -0.5132 C   0  0  0  0  0  0  0  0  0  0  0  0
   -2.0361    0.4093   -0.2778 C   0  0  0  0  0  0  0  0  0  0  0  0
   -0.6484    0.4119   -0.3396 C   0  0  0  0  0  0  0  0  0  0  0  0
    0.0685   -0.7710   -0.0644 C   0  0  0  0  0  0  0  0  0  0  0  0
    1.5473   -0.8121   -0.1089 C   0  0  0  0  0  0  0  0  0  0  0  0
    2.3339    0.2704    0.2906 C   0  0  0  0  0  0  0  0  0  0  0  0
    3.7160    0.0971    0.1993 C   0  0  0  0  0  0  0  0  0  0  0  0
    4.7471    0.9513    0.5107 N   0  0  0  0  0  0  0  0  0  0  0  0
    5.9623    0.3600    0.2586 C   0  0  0  0  0  0  0  0  0  0  0  0
    7.2579    0.8463    0.4198 C   0  0  0  0  0  0  0  0  0  0  0  0
    8.2637   -0.0381    0.0608 C   0  0  0  0  0  0  0  0  0  0  0  0
    8.0643   -1.2870   -0.4142 N   0  0  0  0  0  0  0  0  0  0  0  0
    6.7936   -1.7374   -0.5619 C   0  0  0  0  0  0  0  0  0  0  0  0
    5.7047   -0.9218   -0.2282 C   0  0  0  0  0  0  0  0  0  0  0  0
    4.2848   -1.0871   -0.2625 C   0  0  0  0  0  0  0  0  0  0  0  0
    3.4294   -2.1268   -0.6376 C   0  0  0  0  0  0  0  0  0  0  0  0
    2.0836   -1.9793   -0.5518 N   0  0  0  0  0  0  0  0  0  0  0  0
   -0.6682   -1.9396    0.2542 C   0  0  0  0  0  0  0  0  0  0  0  0
   -2.0656   -1.9472    0.3179 C   0  0  0  0  0  0  0  0  0  0  0  0
   -2.7389   -0.7668    0.0528 C   0  0  0  0  0  0  0  0  0  0  0  0
   -4.8611   -2.4308   -0.7773 H   0  0  0  0  0  0  0  0  0  0  0  0
   -4.5300   -1.2043   -2.0055 H   0  0  0  0  0  0  0  0  0  0  0  0
   -6.0218   -1.1273   -1.0615 H   0  0  0  0  0  0  0  0  0  0  0  0
   -4.3497   -0.1259    2.2037 H   0  0  0  0  0  0  0  0  0  0  0  0
   -4.7515   -1.7846    1.7461 H   0  0  0  0  0  0  0  0  0  0  0  0
   -5.9135   -0.4821    1.4621 H   0  0  0  0  0  0  0  0  0  0  0  0
   -6.4099    1.4166   -0.3502 H   0  0  0  0  0  0  0  0  0  0  0  0
   -6.0469    3.7934   -0.9796 H   0  0  0  0  0  0  0  0  0  0  0  0
   -3.7551    4.6716   -1.3079 H   0  0  0  0  0  0  0  0  0  0  0  0
   -1.7817    3.1974   -1.0137 H   0  0  0  0  0  0  0  0  0  0  0  0
   -0.1280    1.3222   -0.6192 H   0  0  0  0  0  0  0  0  0  0  0  0
    1.9019    1.1883    0.6688 H   0  0  0  0  0  0  0  0  0  0  0  0
    4.6286    1.8863    0.8740 H   0  0  0  0  0  0  0  0  0  0  0  0
    7.4738    1.8375    0.7962 H   0  0  0  0  0  0  0  0  0  0  0  0
    9.3079    0.2513    0.1514 H   0  0  0  0  0  0  0  0  0  0  0  0
    6.6839   -2.7451   -0.9459 H   0  0  0  0  0  0  0  0  0  0  0  0
    3.7828   -3.0831   -1.0059 H   0  0  0  0  0  0  0  0  0  0  0  0
   -0.1322   -2.8665    0.4587 H   0  0  0  0  0  0  0  0  0  0  0  0
   -2.5974   -2.8598    0.5658 H   0  0  0  0  0  0  0  0  0  0  0  0
  1  2  1  0
  2  3  1  0
  2  4  1  0
  4  5  2  0
  5  6  1  0
  6  7  2  0
  7  8  1  0
  8  9  2  0
  9 10  1  0
 10 11  2  0
 11 12  1  0
 12 13  1  0
 13 14  2  0
 14 15  1  0
 15 16  1  0
 16 17  1  0
 17 18  2  0
 18 19  1  0
 19 20  2  0
 20 21  1  0
 21 22  2  0
 22 23  1  0
 23 24  1  0
 24 25  2  0
 12 26  2  0
 26 27  1  0
 27 28  2  0
 28  2  1  0
  9  4  1  0
 28 10  1  0
 25 13  1  0
 23 15  2  0
 22 17  1  0
  1 29  1  0
  1 30  1  0
  1 31  1  0
  3 32  1  0
  3 33  1  0
  3 34  1  0
  5 35  1  0
  6 36  1  0
  7 37  1  0
  8 38  1  0
 11 39  1  0
 14 40  1  0
 16 41  1  0
 18 42  1  0
 19 43  1  0
 21 44  1  0
 24 45  1  0
 26 46  1  0
 27 47  1  0
M  END
