
     RDKit          3D

 42 46  0  0  0  0  0  0  0  0999 V2000
   -3.6754    1.8329   -1.2341 C   0  0  0  0  0  0  0  0  0  0  0  0
   -3.0717    1.1873    0.0183 C   0  0  0  0  0  0  0  0  0  0  0  0
   -3.5123    1.9280    1.2860 C   0  0  0  0  0  0  0  0  0  0  0  0
   -3.4313   -0.2984    0.0976 C   0  0  0  0  0  0  0  0  0  0  0  0
   -4.6864   -0.8826    0.1994 C   0  0  0  0  0  0  0  0  0  0  0  0
   -4.7648   -2.2754    0.2543 C   0  0  0  0  0  0  0  0  0  0  0  0
   -3.6027   -3.0619    0.2071 C   0  0  0  0  0  0  0  0  0  0  0  0
   -2.3403   -2.4694    0.1048 C   0  0  0  0  0  0  0  0  0  0  0  0
   -2.2603   -1.0869    0.0513 C   0  0  0  0  0  0  0  0  0  0  0  0
   -1.1081   -0.2162   -0.0530 C   0  0  0  0  0  0  0  0  0  0  0  0
    0.2436   -0.5215   -0.1278 C   0  0  0  0  0  0  0  0  0  0  0  0
    1.1760    0.5243   -0.2274 C   0  0  0  0  0  0  0  0  0  0  0  0
    2.6102    0.2411   -0.3026 C   0  0  0  0  0  0  0  0  0  0  0  0
    3.6147    0.8559   -1.0312 C   0  0  0  0  0  0  0  0  0  0  0  0
    4.8474    0.2085   -0.7412 C   0  0  0  0  0  0  0  0  0  0  0  0
    6.1697    0.3779   -1.1681 C   0  0  0  0  0  0  0  0  0  0  0  0
    7.1559   -0.4213   -0.6894 N   0  0  0  0  0  0  0  0  0  0  0  0
    6.8379   -1.3823    0.2062 C   0  0  0  0  0  0  0  0  0  0  0  0
    5.5620   -1.6306    0.6906 C   0  0  0  0  0  0  0  0  0  0  0  0
    4.5688   -0.7971    0.1814 C   0  0  0  0  0  0  0  0  0  0  0  0
    3.2176   -0.7544    0.4321 N   0  0  0  0  0  0  0  0  0  0  0  0
    0.7219    1.8600   -0.2581 C   0  0  0  0  0  0  0  0  0  0  0  0
   -0.6396    2.1693   -0.1814 C   0  0  0  0  0  0  0  0  0  0  0  0
   -1.5451    1.1250   -0.0777 C   0  0  0  0  0  0  0  0  0  0  0  0
   -3.3661    1.3106   -2.1478 H   0  0  0  0  0  0  0  0  0  0  0  0
   -3.3635    2.8789   -1.3337 H   0  0  0  0  0  0  0  0  0  0  0  0
   -4.7710    1.8164   -1.2029 H   0  0  0  0  0  0  0  0  0  0  0  0
   -4.6027    1.9150    1.3971 H   0  0  0  0  0  0  0  0  0  0  0  0
   -3.1946    2.9768    1.2661 H   0  0  0  0  0  0  0  0  0  0  0  0
   -3.0858    1.4739    2.1890 H   0  0  0  0  0  0  0  0  0  0  0  0
   -5.5876   -0.2793    0.2347 H   0  0  0  0  0  0  0  0  0  0  0  0
   -5.7362   -2.7581    0.3332 H   0  0  0  0  0  0  0  0  0  0  0  0
   -3.6870   -4.1454    0.2493 H   0  0  0  0  0  0  0  0  0  0  0  0
   -1.4505   -3.0882    0.0668 H   0  0  0  0  0  0  0  0  0  0  0  0
    0.5650   -1.5574   -0.1302 H   0  0  0  0  0  0  0  0  0  0  0  0
    3.4760    1.6832   -1.7154 H   0  0  0  0  0  0  0  0  0  0  0  0
    6.4671    1.1360   -1.8831 H   0  0  0  0  0  0  0  0  0  0  0  0
    7.6793   -1.9818    0.5449 H   0  0  0  0  0  0  0  0  0  0  0  0
    5.3629   -2.4145    1.4089 H   0  0  0  0  0  0  0  0  0  0  0  0
    2.7381   -1.3572    1.0852 H   0  0  0  0  0  0  0  0  0  0  0  0
    1.4382    2.6760   -0.3302 H   0  0  0  0  0  0  0  0  0  0  0  0
   -0.9696    3.2028   -0.2019 H   0  0  0  0  0  0  0  0  0  0  0  0
  1  2  1  0
  2  3  1  0
  2  4  1  0
  4  5  2  0
  5  6  1  0
  6  7  2  0
  7  8  1  0
  8  9  2  0
  9 10  1  0
 10 11  2  0
 11 12  1  0
 12 13  1  0
 13 14  2  0
 14 15  1  0
 15 16  2  0
 16 17  1  0
 17 18  2  0
 18 19  1  0
 19 20  2  0
 20 21  1  0
 12 22  2  0
 22 23  1  0
 23 24  2  0
 24  2  1  0
  9  4  1  0
 24 10  1  0
 21 13  1  0
 20 15  1  0
  1 25  1  0
  1 26  1  0
  1 27  1  0
  3 28  1  0
  3 29  1  0
  3 30  1  0
  5 31  1  0
  6 32  1  0
  7 33  1  0
  8 34  1  0
 11 35  1  0
 14 36  1  0
 16 37  1  0
 18 38  1  0
 19 39  1  0
 21 40  1  0
 22 41  1  0
 23 42  1  0
M  END
