
     RDKit          3D

 45 49  0  0  0  0  0  0  0  0999 V2000
    3.9457    2.3312   -0.0996 C   0  0  0  0  0  0  0  0  0  0  0  0
    3.5207    0.9520   -0.6163 C   0  0  0  0  0  0  0  0  0  0  0  0
    4.1829    0.6410   -1.9633 C   0  0  0  0  0  0  0  0  0  0  0  0
    3.8303   -0.1386    0.4123 C   0  0  0  0  0  0  0  0  0  0  0  0
    5.0621   -0.5275    0.9206 C   0  0  0  0  0  0  0  0  0  0  0  0
    5.0936   -1.5606    1.8591 C   0  0  0  0  0  0  0  0  0  0  0  0
    3.9086   -2.1882    2.2756 C   0  0  0  0  0  0  0  0  0  0  0  0
    2.6699   -1.7933    1.7612 C   0  0  0  0  0  0  0  0  0  0  0  0
    2.6366   -0.7675    0.8300 C   0  0  0  0  0  0  0  0  0  0  0  0
    1.5171   -0.1618    0.1404 C   0  0  0  0  0  0  0  0  0  0  0  0
    0.1594   -0.4372    0.2185 C   0  0  0  0  0  0  0  0  0  0  0  0
   -0.7440    0.3022   -0.5680 C   0  0  0  0  0  0  0  0  0  0  0  0
   -2.1899    0.0327   -0.5013 C   0  0  0  0  0  0  0  0  0  0  0  0
   -2.9146   -0.2981   -1.6600 C   0  0  0  0  0  0  0  0  0  0  0  0
   -4.2845   -0.5631   -1.6004 C   0  0  0  0  0  0  0  0  0  0  0  0
   -4.9453   -0.4927   -0.3731 C   0  0  0  0  0  0  0  0  0  0  0  0
   -6.4020   -0.7734   -0.2855 C   0  0  0  0  0  0  0  0  0  0  0  0
   -7.0652   -1.0797   -1.2698 O   0  0  0  0  0  0  0  0  0  0  0  0
   -7.0436   -0.6610    1.0479 C   0  0  0  0  0  0  0  0  0  0  0  0
   -6.2772   -0.3385    2.0952 C   0  0  0  0  0  0  0  0  0  0  0  0
   -4.9282   -0.1188    2.0297 N   0  0  0  0  0  0  0  0  0  0  0  0
   -4.2532   -0.1491    0.7999 C   0  0  0  0  0  0  0  0  0  0  0  0
   -2.8780    0.0968    0.7259 C   0  0  0  0  0  0  0  0  0  0  0  0
   -0.2398    1.3107   -1.4225 C   0  0  0  0  0  0  0  0  0  0  0  0
    1.1279    1.5908   -1.5026 C   0  0  0  0  0  0  0  0  0  0  0  0
    1.9965    0.8497   -0.7174 C   0  0  0  0  0  0  0  0  0  0  0  0
    3.6626    3.1246   -0.8010 H   0  0  0  0  0  0  0  0  0  0  0  0
    3.4772    2.5642    0.8645 H   0  0  0  0  0  0  0  0  0  0  0  0
    5.0311    2.3872    0.0421 H   0  0  0  0  0  0  0  0  0  0  0  0
    3.9074    1.3810   -2.7236 H   0  0  0  0  0  0  0  0  0  0  0  0
    3.8854   -0.3444   -2.3427 H   0  0  0  0  0  0  0  0  0  0  0  0
    5.2759    0.6433   -1.8807 H   0  0  0  0  0  0  0  0  0  0  0  0
    5.9808   -0.0465    0.6012 H   0  0  0  0  0  0  0  0  0  0  0  0
    6.0459   -1.8849    2.2723 H   0  0  0  0  0  0  0  0  0  0  0  0
    3.9561   -2.9920    3.0066 H   0  0  0  0  0  0  0  0  0  0  0  0
    1.7615   -2.2867    2.0893 H   0  0  0  0  0  0  0  0  0  0  0  0
   -0.2006   -1.2256    0.8728 H   0  0  0  0  0  0  0  0  0  0  0  0
   -2.4074   -0.3673   -2.6210 H   0  0  0  0  0  0  0  0  0  0  0  0
   -4.8296   -0.8270   -2.5037 H   0  0  0  0  0  0  0  0  0  0  0  0
   -8.1077   -0.8385    1.1134 H   0  0  0  0  0  0  0  0  0  0  0  0
   -6.7006   -0.2330    3.0901 H   0  0  0  0  0  0  0  0  0  0  0  0
   -4.4563    0.2673    2.8390 H   0  0  0  0  0  0  0  0  0  0  0  0
   -2.3304    0.3522    1.6305 H   0  0  0  0  0  0  0  0  0  0  0  0
   -0.9279    1.8968   -2.0300 H   0  0  0  0  0  0  0  0  0  0  0  0
    1.4909    2.3712   -2.1635 H   0  0  0  0  0  0  0  0  0  0  0  0
  1  2  1  0
  2  3  1  0
  2  4  1  0
  4  5  2  0
  5  6  1  0
  6  7  2  0
  7  8  1  0
  8  9  2  0
  9 10  1  0
 10 11  2  0
 11 12  1  0
 12 13  1  0
 13 14  2  0
 14 15  1  0
 15 16  2  0
 16 17  1  0
 17 18  2  0
 17 19  1  0
 19 20  2  0
 20 21  1  0
 21 22  1  0
 22 23  2  0
 12 24  2  0
 24 25  1  0
 25 26  2  0
 26  2  1  0
  9  4  1  0
 26 10  1  0
 23 13  1  0
 22 16  1  0
  1 27  1  0
  1 28  1  0
  1 29  1  0
  3 30  1  0
  3 31  1  0
  3 32  1  0
  5 33  1  0
  6 34  1  0
  7 35  1  0
  8 36  1  0
 11 37  1  0
 14 38  1  0
 15 39  1  0
 19 40  1  0
 20 41  1  0
 21 42  1  0
 23 43  1  0
 24 44  1  0
 25 45  1  0
M  END
