
     RDKit          3D

 43 47  0  0  0  0  0  0  0  0999 V2000
   -3.5660   -1.4087   -1.8687 C   0  0  0  0  0  0  0  0  0  0  0  0
   -3.2180   -0.1068   -1.1382 C   0  0  0  0  0  0  0  0  0  0  0  0
   -3.8358    1.1039   -1.8468 C   0  0  0  0  0  0  0  0  0  0  0  0
   -3.6542   -0.1665    0.3277 C   0  0  0  0  0  0  0  0  0  0  0  0
   -4.9336   -0.3092    0.8471 C   0  0  0  0  0  0  0  0  0  0  0  0
   -5.0842   -0.3370    2.2347 C   0  0  0  0  0  0  0  0  0  0  0  0
   -3.9690   -0.2235    3.0802 C   0  0  0  0  0  0  0  0  0  0  0  0
   -2.6820   -0.0798    2.5529 C   0  0  0  0  0  0  0  0  0  0  0  0
   -2.5304   -0.0519    1.1757 C   0  0  0  0  0  0  0  0  0  0  0  0
   -1.3388    0.0843    0.3649 C   0  0  0  0  0  0  0  0  0  0  0  0
   -0.0099    0.2253    0.7395 C   0  0  0  0  0  0  0  0  0  0  0  0
    0.9827    0.3389   -0.2528 C   0  0  0  0  0  0  0  0  0  0  0  0
    2.3967    0.4889    0.1164 C   0  0  0  0  0  0  0  0  0  0  0  0
    2.8326    1.4766    0.9918 C   0  0  0  0  0  0  0  0  0  0  0  0
    4.1191    1.6652    1.3761 N   0  0  0  0  0  0  0  0  0  0  0  0
    5.0609    0.8565    0.8909 C   0  0  0  0  0  0  0  0  0  0  0  0
    6.3236    1.0518    1.2768 N   0  0  0  0  0  0  0  0  0  0  0  0
    7.2890    0.2392    0.7948 C   0  0  0  0  0  0  0  0  0  0  0  0
    7.0558   -0.7978   -0.0849 C   0  0  0  0  0  0  0  0  0  0  0  0
    5.7484   -1.0101   -0.4929 C   0  0  0  0  0  0  0  0  0  0  0  0
    4.7299   -0.1779   -0.0058 C   0  0  0  0  0  0  0  0  0  0  0  0
    3.3891   -0.3521   -0.3876 C   0  0  0  0  0  0  0  0  0  0  0  0
    0.5934    0.3055   -1.6131 C   0  0  0  0  0  0  0  0  0  0  0  0
   -0.7451    0.1646   -1.9931 C   0  0  0  0  0  0  0  0  0  0  0  0
   -1.7019    0.0547   -0.9971 C   0  0  0  0  0  0  0  0  0  0  0  0
   -3.1932   -1.3998   -2.8995 H   0  0  0  0  0  0  0  0  0  0  0  0
   -3.1284   -2.2822   -1.3699 H   0  0  0  0  0  0  0  0  0  0  0  0
   -4.6501   -1.5651   -1.9108 H   0  0  0  0  0  0  0  0  0  0  0  0
   -3.4715    1.1922   -2.8768 H   0  0  0  0  0  0  0  0  0  0  0  0
   -3.5927    2.0416   -1.3321 H   0  0  0  0  0  0  0  0  0  0  0  0
   -4.9285    1.0273   -1.8881 H   0  0  0  0  0  0  0  0  0  0  0  0
   -5.7988   -0.3970    0.1983 H   0  0  0  0  0  0  0  0  0  0  0  0
   -6.0759   -0.4476    2.6675 H   0  0  0  0  0  0  0  0  0  0  0  0
   -4.1088   -0.2473    4.1585 H   0  0  0  0  0  0  0  0  0  0  0  0
   -1.8285    0.0071    3.2166 H   0  0  0  0  0  0  0  0  0  0  0  0
    0.2580    0.2349    1.7923 H   0  0  0  0  0  0  0  0  0  0  0  0
    2.1339    2.1881    1.4272 H   0  0  0  0  0  0  0  0  0  0  0  0
    8.2917    0.4571    1.1523 H   0  0  0  0  0  0  0  0  0  0  0  0
    7.8682   -1.4211   -0.4406 H   0  0  0  0  0  0  0  0  0  0  0  0
    5.5260   -1.8182   -1.1846 H   0  0  0  0  0  0  0  0  0  0  0  0
    3.1202   -1.1560   -1.0696 H   0  0  0  0  0  0  0  0  0  0  0  0
    1.3456    0.4052   -2.3945 H   0  0  0  0  0  0  0  0  0  0  0  0
   -1.0196    0.1465   -3.0429 H   0  0  0  0  0  0  0  0  0  0  0  0
  1  2  1  0
  2  3  1  0
  2  4  1  0
  4  5  2  0
  5  6  1  0
  6  7  2  0
  7  8  1  0
  8  9  2  0
  9 10  1  0
 10 11  2  0
 11 12  1  0
 12 13  1  0
 13 14  2  0
 14 15  1  0
 15 16  2  0
 16 17  1  0
 17 18  2  0
 18 19  1  0
 19 20  2  0
 20 21  1  0
 21 22  2  0
 12 23  2  0
 23 24  1  0
 24 25  2  0
 25  2  1  0
  9  4  1  0
 25 10  1  0
 22 13  1  0
 21 16  1  0
  1 26  1  0
  1 27  1  0
  1 28  1  0
  3 29  1  0
  3 30  1  0
  3 31  1  0
  5 32  1  0
  6 33  1  0
  7 34  1  0
  8 35  1  0
 11 36  1  0
 14 37  1  0
 18 38  1  0
 19 39  1  0
 20 40  1  0
 22 41  1  0
 23 42  1  0
 24 43  1  0
M  END
