
     RDKit          3D

 41 45  0  0  0  0  0  0  0  0999 V2000
   -3.2494    1.9416   -1.7430 C   0  0  0  0  0  0  0  0  0  0  0  0
   -2.8018    0.5090   -1.4315 C   0  0  0  0  0  0  0  0  0  0  0  0
   -3.1003   -0.4286   -2.6069 C   0  0  0  0  0  0  0  0  0  0  0  0
   -3.4519   -0.0016   -0.1433 C   0  0  0  0  0  0  0  0  0  0  0  0
   -4.7994   -0.1878    0.1332 C   0  0  0  0  0  0  0  0  0  0  0  0
   -5.1548   -0.6713    1.3936 C   0  0  0  0  0  0  0  0  0  0  0  0
   -4.1726   -0.9609    2.3542 C   0  0  0  0  0  0  0  0  0  0  0  0
   -2.8163   -0.7718    2.0716 C   0  0  0  0  0  0  0  0  0  0  0  0
   -2.4612   -0.2915    0.8210 C   0  0  0  0  0  0  0  0  0  0  0  0
   -1.1575   -0.0028    0.2602 C   0  0  0  0  0  0  0  0  0  0  0  0
    0.1084   -0.1294    0.8195 C   0  0  0  0  0  0  0  0  0  0  0  0
    1.2485    0.2203    0.0656 C   0  0  0  0  0  0  0  0  0  0  0  0
    2.6145    0.1111    0.6180 C   0  0  0  0  0  0  0  0  0  0  0  0
    2.9146    0.2240    1.9686 C   0  0  0  0  0  0  0  0  0  0  0  0
    4.1693    0.1182    2.4650 N   0  0  0  0  0  0  0  0  0  0  0  0
    5.1487   -0.0987    1.5814 C   0  0  0  0  0  0  0  0  0  0  0  0
    6.4026   -0.2085    2.0422 N   0  0  0  0  0  0  0  0  0  0  0  0
    7.3714   -0.4230    1.1296 C   0  0  0  0  0  0  0  0  0  0  0  0
    7.0981   -0.5254   -0.2161 C   0  0  0  0  0  0  0  0  0  0  0  0
    5.8450   -0.4181   -0.7022 N   0  0  0  0  0  0  0  0  0  0  0  0
    4.8638   -0.2067    0.1863 C   0  0  0  0  0  0  0  0  0  0  0  0
    3.6114   -0.0992   -0.2759 N   0  0  0  0  0  0  0  0  0  0  0  0
    1.0518    0.6803   -1.2620 C   0  0  0  0  0  0  0  0  0  0  0  0
   -0.2206    0.8089   -1.8291 C   0  0  0  0  0  0  0  0  0  0  0  0
   -1.3180    0.4671   -1.0583 C   0  0  0  0  0  0  0  0  0  0  0  0
   -3.0408    2.6215   -0.9077 H   0  0  0  0  0  0  0  0  0  0  0  0
   -4.3262    1.9888   -1.9421 H   0  0  0  0  0  0  0  0  0  0  0  0
   -2.7325    2.3383   -2.6245 H   0  0  0  0  0  0  0  0  0  0  0  0
   -2.5797   -0.1069   -3.5162 H   0  0  0  0  0  0  0  0  0  0  0  0
   -4.1726   -0.4567   -2.8325 H   0  0  0  0  0  0  0  0  0  0  0  0
   -2.7834   -1.4571   -2.3947 H   0  0  0  0  0  0  0  0  0  0  0  0
   -5.5621    0.0337   -0.6061 H   0  0  0  0  0  0  0  0  0  0  0  0
   -6.2038   -0.8265    1.6355 H   0  0  0  0  0  0  0  0  0  0  0  0
   -4.4718   -1.3375    3.3296 H   0  0  0  0  0  0  0  0  0  0  0  0
   -2.0683   -1.0006    2.8227 H   0  0  0  0  0  0  0  0  0  0  0  0
    0.1998   -0.5170    1.8293 H   0  0  0  0  0  0  0  0  0  0  0  0
    2.1522    0.4211    2.7148 H   0  0  0  0  0  0  0  0  0  0  0  0
    8.3807   -0.5101    1.5163 H   0  0  0  0  0  0  0  0  0  0  0  0
    7.8804   -0.6976   -0.9468 H   0  0  0  0  0  0  0  0  0  0  0  0
    1.9166    0.9461   -1.8713 H   0  0  0  0  0  0  0  0  0  0  0  0
   -0.3328    1.1648   -2.8482 H   0  0  0  0  0  0  0  0  0  0  0  0
  1  2  1  0
  2  3  1  0
  2  4  1  0
  4  5  2  0
  5  6  1  0
  6  7  2  0
  7  8  1  0
  8  9  2  0
  9 10  1  0
 10 11  2  0
 11 12  1  0
 12 13  1  0
 13 14  2  0
 14 15  1  0
 15 16  2  0
 16 17  1  0
 17 18  2  0
 18 19  1  0
 19 20  2  0
 20 21  1  0
 21 22  2  0
 12 23  2  0
 23 24  1  0
 24 25  2  0
 25  2  1  0
  9  4  1  0
 25 10  1  0
 22 13  1  0
 21 16  1  0
  1 26  1  0
  1 27  1  0
  1 28  1  0
  3 29  1  0
  3 30  1  0
  3 31  1  0
  5 32  1  0
  6 33  1  0
  7 34  1  0
  8 35  1  0
 11 36  1  0
 14 37  1  0
 18 38  1  0
 19 39  1  0
 23 40  1  0
 24 41  1  0
M  END
