
     RDKit          3D

 35 38  0  0  0  0  0  0  0  0999 V2000
   -2.3206   -1.9927    0.6837 C   0  0  0  0  0  0  0  0  0  0  0  0
   -1.8675   -0.8299   -0.2064 C   0  0  0  0  0  0  0  0  0  0  0  0
   -2.5766   -0.8680   -1.5649 C   0  0  0  0  0  0  0  0  0  0  0  0
   -2.0894    0.5142    0.4911 C   0  0  0  0  0  0  0  0  0  0  0  0
   -3.2819    1.0855    0.9136 C   0  0  0  0  0  0  0  0  0  0  0  0
   -3.2329    2.3353    1.5337 C   0  0  0  0  0  0  0  0  0  0  0  0
   -2.0080    2.9945    1.7237 C   0  0  0  0  0  0  0  0  0  0  0  0
   -0.8090    2.4156    1.2966 C   0  0  0  0  0  0  0  0  0  0  0  0
   -0.8555    1.1752    0.6805 C   0  0  0  0  0  0  0  0  0  0  0  0
    0.2086    0.3516    0.1460 C   0  0  0  0  0  0  0  0  0  0  0  0
    1.5778    0.5737    0.0995 C   0  0  0  0  0  0  0  0  0  0  0  0
    2.4095   -0.4003   -0.4782 C   0  0  0  0  0  0  0  0  0  0  0  0
    3.8428   -0.1780   -0.5377 C   0  0  0  0  0  0  0  0  0  0  0  0
    4.5993    1.0131   -0.6190 C   0  0  0  0  0  0  0  0  0  0  0  0
    5.9147    0.7825   -0.6370 N   0  0  0  0  0  0  0  0  0  0  0  0
    6.0415   -0.5949   -0.5604 O   0  0  0  0  0  0  0  0  0  0  0  0
    4.8080   -1.1569   -0.4992 C   0  0  0  0  0  0  0  0  0  0  0  0
    1.8382   -1.5805   -1.0032 C   0  0  0  0  0  0  0  0  0  0  0  0
    0.4581   -1.8037   -0.9574 C   0  0  0  0  0  0  0  0  0  0  0  0
   -0.3462   -0.8332   -0.3812 C   0  0  0  0  0  0  0  0  0  0  0  0
   -1.8187   -1.9752    1.6590 H   0  0  0  0  0  0  0  0  0  0  0  0
   -2.0991   -2.9606    0.2193 H   0  0  0  0  0  0  0  0  0  0  0  0
   -3.4000   -1.9552    0.8705 H   0  0  0  0  0  0  0  0  0  0  0  0
   -3.6642   -0.7946   -1.4494 H   0  0  0  0  0  0  0  0  0  0  0  0
   -2.3633   -1.8003   -2.1003 H   0  0  0  0  0  0  0  0  0  0  0  0
   -2.2593   -0.0398   -2.2104 H   0  0  0  0  0  0  0  0  0  0  0  0
   -4.2312    0.5801    0.7695 H   0  0  0  0  0  0  0  0  0  0  0  0
   -4.1530    2.8048    1.8743 H   0  0  0  0  0  0  0  0  0  0  0  0
   -1.9927    3.9674    2.2097 H   0  0  0  0  0  0  0  0  0  0  0  0
    0.1305    2.9353    1.4502 H   0  0  0  0  0  0  0  0  0  0  0  0
    1.9899    1.4858    0.5192 H   0  0  0  0  0  0  0  0  0  0  0  0
    4.2536    2.0358   -0.6717 H   0  0  0  0  0  0  0  0  0  0  0  0
    4.7978   -2.2341   -0.4243 H   0  0  0  0  0  0  0  0  0  0  0  0
    2.4642   -2.3378   -1.4707 H   0  0  0  0  0  0  0  0  0  0  0  0
    0.0347   -2.7147   -1.3685 H   0  0  0  0  0  0  0  0  0  0  0  0
  1  2  1  0
  2  3  1  0
  2  4  1  0
  4  5  2  0
  5  6  1  0
  6  7  2  0
  7  8  1  0
  8  9  2  0
  9 10  1  0
 10 11  2  0
 11 12  1  0
 12 13  1  0
 13 14  1  0
 14 15  2  0
 15 16  1  0
 16 17  1  0
 12 18  2  0
 18 19  1  0
 19 20  2  0
 20  2  1  0
  9  4  1  0
 20 10  1  0
 17 13  2  0
  1 21  1  0
  1 22  1  0
  1 23  1  0
  3 24  1  0
  3 25  1  0
  3 26  1  0
  5 27  1  0
  6 28  1  0
  7 29  1  0
  8 30  1  0
 11 31  1  0
 14 32  1  0
 17 33  1  0
 18 34  1  0
 19 35  1  0
M  END
