
     RDKit          3D

 41 45  0  0  0  0  0  0  0  0999 V2000
   -3.4639   -2.4517   -0.4286 C   0  0  0  0  0  0  0  0  0  0  0  0
   -3.0341   -1.2474    0.4169 C   0  0  0  0  0  0  0  0  0  0  0  0
   -3.6131   -1.3349    1.8335 C   0  0  0  0  0  0  0  0  0  0  0  0
   -3.4320    0.0673   -0.2584 C   0  0  0  0  0  0  0  0  0  0  0  0
   -4.7020    0.5321   -0.5716 C   0  0  0  0  0  0  0  0  0  0  0  0
   -4.8157    1.7768   -1.1936 C   0  0  0  0  0  0  0  0  0  0  0  0
   -3.6735    2.5363   -1.4932 C   0  0  0  0  0  0  0  0  0  0  0  0
   -2.3961    2.0645   -1.1761 C   0  0  0  0  0  0  0  0  0  0  0  0
   -2.2812    0.8292   -0.5586 C   0  0  0  0  0  0  0  0  0  0  0  0
   -1.1067    0.1035   -0.1229 C   0  0  0  0  0  0  0  0  0  0  0  0
    0.2370    0.4417   -0.2013 C   0  0  0  0  0  0  0  0  0  0  0  0
    1.1997   -0.4504    0.3026 C   0  0  0  0  0  0  0  0  0  0  0  0
    2.6292   -0.1475    0.2473 C   0  0  0  0  0  0  0  0  0  0  0  0
    3.6484   -0.8747    0.6735 N   0  0  0  0  0  0  0  0  0  0  0  0
    4.7457   -0.1107    0.3686 C   0  0  0  0  0  0  0  0  0  0  0  0
    6.1130   -0.3376    0.5708 C   0  0  0  0  0  0  0  0  0  0  0  0
    7.0170    0.6476    0.1440 C   0  0  0  0  0  0  0  0  0  0  0  0
    6.5689    1.8262   -0.4673 C   0  0  0  0  0  0  0  0  0  0  0  0
    5.2051    2.0666   -0.6759 C   0  0  0  0  0  0  0  0  0  0  0  0
    4.3447    1.0670   -0.2391 C   0  0  0  0  0  0  0  0  0  0  0  0
    2.9840    1.0521   -0.3215 O   0  0  0  0  0  0  0  0  0  0  0  0
    0.7767   -1.6709    0.8772 C   0  0  0  0  0  0  0  0  0  0  0  0
   -0.5765   -2.0136    0.9572 C   0  0  0  0  0  0  0  0  0  0  0  0
   -1.5087   -1.1197    0.4544 C   0  0  0  0  0  0  0  0  0  0  0  0
   -3.0548   -2.3993   -1.4450 H   0  0  0  0  0  0  0  0  0  0  0  0
   -4.5550   -2.5076   -0.5177 H   0  0  0  0  0  0  0  0  0  0  0  0
   -3.1198   -3.3934    0.0144 H   0  0  0  0  0  0  0  0  0  0  0  0
   -3.2737   -2.2413    2.3480 H   0  0  0  0  0  0  0  0  0  0  0  0
   -4.7089   -1.3555    1.8162 H   0  0  0  0  0  0  0  0  0  0  0  0
   -3.3114   -0.4775    2.4477 H   0  0  0  0  0  0  0  0  0  0  0  0
   -5.5878   -0.0510   -0.3422 H   0  0  0  0  0  0  0  0  0  0  0  0
   -5.7993    2.1639   -1.4496 H   0  0  0  0  0  0  0  0  0  0  0  0
   -3.7847    3.5035   -1.9780 H   0  0  0  0  0  0  0  0  0  0  0  0
   -1.5211    2.6604   -1.4125 H   0  0  0  0  0  0  0  0  0  0  0  0
    0.5351    1.3855   -0.6476 H   0  0  0  0  0  0  0  0  0  0  0  0
    6.4557   -1.2507    1.0442 H   0  0  0  0  0  0  0  0  0  0  0  0
    8.0840    0.4913    0.2916 H   0  0  0  0  0  0  0  0  0  0  0  0
    7.2956    2.5711   -0.7871 H   0  0  0  0  0  0  0  0  0  0  0  0
    4.8396    2.9704   -1.1461 H   0  0  0  0  0  0  0  0  0  0  0  0
    1.5196   -2.3655    1.2691 H   0  0  0  0  0  0  0  0  0  0  0  0
   -0.8789   -2.9559    1.4024 H   0  0  0  0  0  0  0  0  0  0  0  0
  1  2  1  0
  2  3  1  0
  2  4  1  0
  4  5  2  0
  5  6  1  0
  6  7  2  0
  7  8  1  0
  8  9  2  0
  9 10  1  0
 10 11  2  0
 11 12  1  0
 12 13  1  0
 13 14  2  0
 14 15  1  0
 15 16  2  0
 16 17  1  0
 17 18  2  0
 18 19  1  0
 19 20  2  0
 20 21  1  0
 12 22  2  0
 22 23  1  0
 23 24  2  0
 24  2  1  0
  9  4  1  0
 24 10  1  0
 21 13  1  0
 20 15  1  0
  1 25  1  0
  1 26  1  0
  1 27  1  0
  3 28  1  0
  3 29  1  0
  3 30  1  0
  5 31  1  0
  6 32  1  0
  7 33  1  0
  8 34  1  0
 11 35  1  0
 16 36  1  0
 17 37  1  0
 18 38  1  0
 19 39  1  0
 22 40  1  0
 23 41  1  0
M  END
