
     RDKit          3D

 38 41  0  0  0  0  0  0  0  0999 V2000
   -2.9592   -1.7970    0.7148 C   0  0  0  0  0  0  0  0  0  0  0  0
   -2.3348   -0.7881   -0.2559 C   0  0  0  0  0  0  0  0  0  0  0  0
   -2.8402   -1.0144   -1.6853 C   0  0  0  0  0  0  0  0  0  0  0  0
   -2.6011    0.6487    0.1996 C   0  0  0  0  0  0  0  0  0  0  0  0
   -3.8177    1.2993    0.3526 C   0  0  0  0  0  0  0  0  0  0  0  0
   -3.8077    2.6261    0.7871 C   0  0  0  0  0  0  0  0  0  0  0  0
   -2.5970    3.2823    1.0617 C   0  0  0  0  0  0  0  0  0  0  0  0
   -1.3738    2.6232    0.9061 C   0  0  0  0  0  0  0  0  0  0  0  0
   -1.3817    1.3065    0.4742 C   0  0  0  0  0  0  0  0  0  0  0  0
   -0.2863    0.3929    0.2280 C   0  0  0  0  0  0  0  0  0  0  0  0
    1.0828    0.5782    0.3533 C   0  0  0  0  0  0  0  0  0  0  0  0
    1.9615   -0.4787    0.0421 C   0  0  0  0  0  0  0  0  0  0  0  0
    3.4184   -0.2826    0.1692 C   0  0  0  0  0  0  0  0  0  0  0  0
    3.8099    0.1716    1.3885 N   0  0  0  0  0  0  0  0  0  0  0  0
    5.1228    0.3676    1.5754 C   0  0  0  0  0  0  0  0  0  0  0  0
    6.0794    0.1648    0.6608 N   0  0  0  0  0  0  0  0  0  0  0  0
    5.6532   -0.2709   -0.5422 C   0  0  0  0  0  0  0  0  0  0  0  0
    4.3296   -0.5129   -0.8502 C   0  0  0  0  0  0  0  0  0  0  0  0
    3.9725   -0.9460   -2.1591 C   0  0  0  0  0  0  0  0  0  0  0  0
    3.7131   -1.3126   -3.2291 N   0  0  0  0  0  0  0  0  0  0  0  0
    1.4138   -1.7185   -0.3683 C   0  0  0  0  0  0  0  0  0  0  0  0
    0.0336   -1.9073   -0.4967 C   0  0  0  0  0  0  0  0  0  0  0  0
   -0.8058   -0.8456   -0.1998 C   0  0  0  0  0  0  0  0  0  0  0  0
   -2.7127   -2.8271    0.4329 H   0  0  0  0  0  0  0  0  0  0  0  0
   -2.6035   -1.6444    1.7412 H   0  0  0  0  0  0  0  0  0  0  0  0
   -4.0518   -1.7114    0.7310 H   0  0  0  0  0  0  0  0  0  0  0  0
   -3.9292   -0.9048   -1.7455 H   0  0  0  0  0  0  0  0  0  0  0  0
   -2.5889   -2.0196   -2.0428 H   0  0  0  0  0  0  0  0  0  0  0  0
   -2.3997   -0.2972   -2.3887 H   0  0  0  0  0  0  0  0  0  0  0  0
   -4.7559    0.7966    0.1421 H   0  0  0  0  0  0  0  0  0  0  0  0
   -4.7472    3.1586    0.9152 H   0  0  0  0  0  0  0  0  0  0  0  0
   -2.6120    4.3158    1.3998 H   0  0  0  0  0  0  0  0  0  0  0  0
   -0.4449    3.1399    1.1223 H   0  0  0  0  0  0  0  0  0  0  0  0
    1.4771    1.5329    0.6911 H   0  0  0  0  0  0  0  0  0  0  0  0
    5.4360    0.7218    2.5517 H   0  0  0  0  0  0  0  0  0  0  0  0
    6.4436   -0.4191   -1.2753 H   0  0  0  0  0  0  0  0  0  0  0  0
    2.0665   -2.5632   -0.5839 H   0  0  0  0  0  0  0  0  0  0  0  0
   -0.3626   -2.8655   -0.8177 H   0  0  0  0  0  0  0  0  0  0  0  0
  1  2  1  0
  2  3  1  0
  2  4  1  0
  4  5  2  0
  5  6  1  0
  6  7  2  0
  7  8  1  0
  8  9  2  0
  9 10  1  0
 10 11  2  0
 11 12  1  0
 12 13  1  0
 13 14  2  0
 14 15  1  0
 15 16  2  0
 16 17  1  0
 17 18  2  0
 18 19  1  0
 19 20  3  0
 12 21  2  0
 21 22  1  0
 22 23  2  0
 23  2  1  0
  9  4  1  0
 23 10  1  0
 18 13  1  0
  1 24  1  0
  1 25  1  0
  1 26  1  0
  3 27  1  0
  3 28  1  0
  3 29  1  0
  5 30  1  0
  6 31  1  0
  7 32  1  0
  8 33  1  0
 11 34  1  0
 15 35  1  0
 17 36  1  0
 21 37  1  0
 22 38  1  0
M  END
