
     RDKit          3D

 49 53  0  0  0  0  0  0  0  0999 V2000
   -4.3558   -1.0763    1.5913 C   0  0  0  0  0  0  0  0  0  0  0  0
   -3.7982   -1.0669    0.1461 C   0  0  0  0  0  0  0  0  0  0  0  0
   -4.0498   -2.4422   -0.5181 C   0  0  0  0  0  0  0  0  0  0  0  0
   -4.5628    0.0060   -0.6597 C   0  0  0  0  0  0  0  0  0  0  0  0
   -5.9650   -0.0461   -0.8052 C   0  0  0  0  0  0  0  0  0  0  0  0
   -6.6532    0.9200   -1.5408 C   0  0  0  0  0  0  0  0  0  0  0  0
   -5.9538    1.9528   -2.1522 C   0  0  0  0  0  0  0  0  0  0  0  0
   -4.5678    2.0197   -2.0218 C   0  0  0  0  0  0  0  0  0  0  0  0
   -3.8699    1.0665   -1.2661 C   0  0  0  0  0  0  0  0  0  0  0  0
   -2.4736    1.1266   -1.1969 N   0  0  0  0  0  0  0  0  0  0  0  0
   -1.6868    0.2594   -0.4300 C   0  0  0  0  0  0  0  0  0  0  0  0
   -0.2947    0.4418   -0.3883 C   0  0  0  0  0  0  0  0  0  0  0  0
    0.5437   -0.4286    0.3246 C   0  0  0  0  0  0  0  0  0  0  0  0
    1.9991   -0.2188    0.3659 C   0  0  0  0  0  0  0  0  0  0  0  0
    2.6842   -0.1291    1.5840 C   0  0  0  0  0  0  0  0  0  0  0  0
    4.0708    0.0691    1.6199 C   0  0  0  0  0  0  0  0  0  0  0  0
    4.8305    0.1900    0.4431 C   0  0  0  0  0  0  0  0  0  0  0  0
    6.2904    0.4036    0.5077 C   0  0  0  0  0  0  0  0  0  0  0  0
    7.0199    1.0742   -0.4755 C   0  0  0  0  0  0  0  0  0  0  0  0
    8.3636    1.2677   -0.4183 N   0  0  0  0  0  0  0  0  0  0  0  0
    8.9675    0.7646    0.6781 C   0  0  0  0  0  0  0  0  0  0  0  0
    8.2642    0.1052    1.6689 C   0  0  0  0  0  0  0  0  0  0  0  0
    6.9255   -0.0850    1.6083 N   0  0  0  0  0  0  0  0  0  0  0  0
    4.1372    0.0886   -0.7752 C   0  0  0  0  0  0  0  0  0  0  0  0
    2.7492   -0.1089   -0.8127 C   0  0  0  0  0  0  0  0  0  0  0  0
   -0.0504   -1.5073    0.9885 C   0  0  0  0  0  0  0  0  0  0  0  0
   -1.4323   -1.7124    0.9330 C   0  0  0  0  0  0  0  0  0  0  0  0
   -2.2726   -0.8375    0.2183 C   0  0  0  0  0  0  0  0  0  0  0  0
   -5.4326   -1.2759    1.6199 H   0  0  0  0  0  0  0  0  0  0  0  0
   -4.1887   -0.1101    2.0839 H   0  0  0  0  0  0  0  0  0  0  0  0
   -3.8856   -1.8460    2.2131 H   0  0  0  0  0  0  0  0  0  0  0  0
   -5.1160   -2.6900   -0.5660 H   0  0  0  0  0  0  0  0  0  0  0  0
   -3.6630   -2.4605   -1.5448 H   0  0  0  0  0  0  0  0  0  0  0  0
   -3.5666   -3.2602    0.0278 H   0  0  0  0  0  0  0  0  0  0  0  0
   -6.5400   -0.8480   -0.3485 H   0  0  0  0  0  0  0  0  0  0  0  0
   -7.7337    0.8592   -1.6409 H   0  0  0  0  0  0  0  0  0  0  0  0
   -6.4830    2.7011   -2.7355 H   0  0  0  0  0  0  0  0  0  0  0  0
   -4.0307    2.8228   -2.5189 H   0  0  0  0  0  0  0  0  0  0  0  0
   -2.0557    2.0161   -1.4334 H   0  0  0  0  0  0  0  0  0  0  0  0
    0.1437    1.2860   -0.9157 H   0  0  0  0  0  0  0  0  0  0  0  0
    2.1423   -0.2038    2.5249 H   0  0  0  0  0  0  0  0  0  0  0  0
    4.5620    0.1337    2.5903 H   0  0  0  0  0  0  0  0  0  0  0  0
    6.5434    1.5002   -1.3515 H   0  0  0  0  0  0  0  0  0  0  0  0
   10.0399    0.9078    0.7417 H   0  0  0  0  0  0  0  0  0  0  0  0
    8.7602   -0.2927    2.5467 H   0  0  0  0  0  0  0  0  0  0  0  0
    4.6658    0.1377   -1.7247 H   0  0  0  0  0  0  0  0  0  0  0  0
    2.2579   -0.1967   -1.7804 H   0  0  0  0  0  0  0  0  0  0  0  0
    0.5639   -2.2146    1.5425 H   0  0  0  0  0  0  0  0  0  0  0  0
   -1.8423   -2.5749    1.4529 H   0  0  0  0  0  0  0  0  0  0  0  0
  1  2  1  0
  2  3  1  0
  2  4  1  0
  4  5  2  0
  5  6  1  0
  6  7  2  0
  7  8  1  0
  8  9  2  0
  9 10  1  0
 10 11  1  0
 11 12  2  0
 12 13  1  0
 13 14  1  0
 14 15  2  0
 15 16  1  0
 16 17  2  0
 17 18  1  0
 18 19  2  0
 19 20  1  0
 20 21  2  0
 21 22  1  0
 22 23  2  0
 17 24  1  0
 24 25  2  0
 13 26  2  0
 26 27  1  0
 27 28  2  0
 28  2  1  0
  9  4  1  0
 28 11  1  0
 25 14  1  0
 23 18  1  0
  1 29  1  0
  1 30  1  0
  1 31  1  0
  3 32  1  0
  3 33  1  0
  3 34  1  0
  5 35  1  0
  6 36  1  0
  7 37  1  0
  8 38  1  0
 10 39  1  0
 12 40  1  0
 15 41  1  0
 16 42  1  0
 19 43  1  0
 21 44  1  0
 22 45  1  0
 24 46  1  0
 25 47  1  0
 26 48  1  0
 27 49  1  0
M  END
