
     RDKit          3D

 43 47  0  0  0  0  0  0  0  0999 V2000
   -2.9147   -1.8988   -1.1487 C   0  0  0  0  0  0  0  0  0  0  0  0
   -2.5954   -0.4304   -0.7730 C   0  0  0  0  0  0  0  0  0  0  0  0
   -3.0795    0.5129   -1.9008 C   0  0  0  0  0  0  0  0  0  0  0  0
   -3.3722   -0.0815    0.5154 C   0  0  0  0  0  0  0  0  0  0  0  0
   -4.7785   -0.1780    0.5734 C   0  0  0  0  0  0  0  0  0  0  0  0
   -5.4792    0.1459    1.7363 C   0  0  0  0  0  0  0  0  0  0  0  0
   -4.7899    0.5798    2.8616 C   0  0  0  0  0  0  0  0  0  0  0  0
   -3.4007    0.6835    2.8228 C   0  0  0  0  0  0  0  0  0  0  0  0
   -2.6861    0.3393    1.6662 C   0  0  0  0  0  0  0  0  0  0  0  0
   -1.2968    0.5021    1.6376 N   0  0  0  0  0  0  0  0  0  0  0  0
   -0.4848    0.1417    0.5564 C   0  0  0  0  0  0  0  0  0  0  0  0
    0.9076    0.2978    0.6535 C   0  0  0  0  0  0  0  0  0  0  0  0
    1.7610    0.0029   -0.4205 C   0  0  0  0  0  0  0  0  0  0  0  0
    3.2195    0.1630   -0.2979 C   0  0  0  0  0  0  0  0  0  0  0  0
    3.9331    0.9678   -1.2090 C   0  0  0  0  0  0  0  0  0  0  0  0
    5.3216    1.1500   -1.1275 C   0  0  0  0  0  0  0  0  0  0  0  0
    5.9685    0.4871   -0.0871 C   0  0  0  0  0  0  0  0  0  0  0  0
    7.2720    0.4162    0.3159 N   0  0  0  0  0  0  0  0  0  0  0  0
    7.4216   -0.3651    1.3979 N   0  0  0  0  0  0  0  0  0  0  0  0
    6.2195   -0.8229    1.7263 N   0  0  0  0  0  0  0  0  0  0  0  0
    5.3125   -0.3155    0.8343 C   0  0  0  0  0  0  0  0  0  0  0  0
    3.9244   -0.4858    0.7364 C   0  0  0  0  0  0  0  0  0  0  0  0
    1.1791   -0.4425   -1.6123 C   0  0  0  0  0  0  0  0  0  0  0  0
   -0.2074   -0.5818   -1.7264 C   0  0  0  0  0  0  0  0  0  0  0  0
   -1.0626   -0.2864   -0.6476 C   0  0  0  0  0  0  0  0  0  0  0  0
   -2.4272   -2.2045   -2.0809 H   0  0  0  0  0  0  0  0  0  0  0  0
   -3.9874   -2.0662   -1.2953 H   0  0  0  0  0  0  0  0  0  0  0  0
   -2.5801   -2.5877   -0.3629 H   0  0  0  0  0  0  0  0  0  0  0  0
   -2.8640    1.5609   -1.6575 H   0  0  0  0  0  0  0  0  0  0  0  0
   -2.5965    0.2939   -2.8596 H   0  0  0  0  0  0  0  0  0  0  0  0
   -4.1586    0.4326   -2.0732 H   0  0  0  0  0  0  0  0  0  0  0  0
   -5.3478   -0.5040   -0.2936 H   0  0  0  0  0  0  0  0  0  0  0  0
   -6.5628    0.0654    1.7581 H   0  0  0  0  0  0  0  0  0  0  0  0
   -5.3309    0.8437    3.7660 H   0  0  0  0  0  0  0  0  0  0  0  0
   -2.8747    1.0394    3.7045 H   0  0  0  0  0  0  0  0  0  0  0  0
   -0.8392    0.5782    2.5358 H   0  0  0  0  0  0  0  0  0  0  0  0
    1.3338    0.6703    1.5828 H   0  0  0  0  0  0  0  0  0  0  0  0
    3.3928    1.4829   -2.0038 H   0  0  0  0  0  0  0  0  0  0  0  0
    5.8512    1.7768   -1.8365 H   0  0  0  0  0  0  0  0  0  0  0  0
    8.0905    0.8582   -0.0830 H   0  0  0  0  0  0  0  0  0  0  0  0
    3.4156   -1.1232    1.4525 H   0  0  0  0  0  0  0  0  0  0  0  0
    1.8037   -0.6928   -2.4675 H   0  0  0  0  0  0  0  0  0  0  0  0
   -0.6107   -0.9251   -2.6761 H   0  0  0  0  0  0  0  0  0  0  0  0
  1  2  1  0
  2  3  1  0
  2  4  1  0
  4  5  2  0
  5  6  1  0
  6  7  2  0
  7  8  1  0
  8  9  2  0
  9 10  1  0
 10 11  1  0
 11 12  2  0
 12 13  1  0
 13 14  1  0
 14 15  2  0
 15 16  1  0
 16 17  2  0
 17 18  1  0
 18 19  1  0
 19 20  2  0
 20 21  1  0
 21 22  2  0
 13 23  2  0
 23 24  1  0
 24 25  2  0
 25  2  1  0
  9  4  1  0
 25 11  1  0
 22 14  1  0
 21 17  1  0
  1 26  1  0
  1 27  1  0
  1 28  1  0
  3 29  1  0
  3 30  1  0
  3 31  1  0
  5 32  1  0
  6 33  1  0
  7 34  1  0
  8 35  1  0
 10 36  1  0
 12 37  1  0
 15 38  1  0
 16 39  1  0
 18 40  1  0
 22 41  1  0
 23 42  1  0
 24 43  1  0
M  END
