
     RDKit          3D

 50 55  0  0  0  0  0  0  0  0999 V2000
   -4.1835   -0.3598   -2.3076 C   0  0  0  0  0  0  0  0  0  0  0  0
   -3.8810   -0.7237   -0.8338 C   0  0  0  0  0  0  0  0  0  0  0  0
   -4.3648   -2.1663   -0.5433 C   0  0  0  0  0  0  0  0  0  0  0  0
   -4.6716    0.2431    0.0747 C   0  0  0  0  0  0  0  0  0  0  0  0
   -6.0800    0.3090    0.0266 C   0  0  0  0  0  0  0  0  0  0  0  0
   -6.7921    1.1894    0.8427 C   0  0  0  0  0  0  0  0  0  0  0  0
   -6.1113    2.0269    1.7171 C   0  0  0  0  0  0  0  0  0  0  0  0
   -4.7197    1.9780    1.7770 C   0  0  0  0  0  0  0  0  0  0  0  0
   -3.9968    1.0810    0.9774 C   0  0  0  0  0  0  0  0  0  0  0  0
   -2.5982    1.0910    1.0183 N   0  0  0  0  0  0  0  0  0  0  0  0
   -1.7847    0.2044    0.3033 C   0  0  0  0  0  0  0  0  0  0  0  0
   -0.3903    0.2655    0.4588 C   0  0  0  0  0  0  0  0  0  0  0  0
    0.4709   -0.5669   -0.2715 C   0  0  0  0  0  0  0  0  0  0  0  0
    1.9299   -0.4964   -0.0900 C   0  0  0  0  0  0  0  0  0  0  0  0
    2.6592   -1.6360    0.2819 C   0  0  0  0  0  0  0  0  0  0  0  0
    4.0495   -1.5959    0.4628 C   0  0  0  0  0  0  0  0  0  0  0  0
    4.7378   -0.3837    0.2655 C   0  0  0  0  0  0  0  0  0  0  0  0
    4.0034    0.7445   -0.1059 C   0  0  0  0  0  0  0  0  0  0  0  0
    2.6137    0.7180   -0.2877 C   0  0  0  0  0  0  0  0  0  0  0  0
    4.8968    1.7830   -0.2383 N   0  0  0  0  0  0  0  0  0  0  0  0
    6.1653    1.3607    0.0389 C   0  0  0  0  0  0  0  0  0  0  0  0
    7.2547    2.1503   -0.0029 N   0  0  0  0  0  0  0  0  0  0  0  0
    8.3925    1.4903    0.3127 C   0  0  0  0  0  0  0  0  0  0  0  0
    8.4835    0.1458    0.6506 C   0  0  0  0  0  0  0  0  0  0  0  0
    7.3207   -0.6256    0.6780 C   0  0  0  0  0  0  0  0  0  0  0  0
    6.1084    0.0099    0.3583 C   0  0  0  0  0  0  0  0  0  0  0  0
   -0.1014   -1.4602   -1.1833 C   0  0  0  0  0  0  0  0  0  0  0  0
   -1.4868   -1.5117   -1.3638 C   0  0  0  0  0  0  0  0  0  0  0  0
   -2.3508   -0.6769   -0.6294 C   0  0  0  0  0  0  0  0  0  0  0  0
   -5.2539   -0.4125   -2.5358 H   0  0  0  0  0  0  0  0  0  0  0  0
   -3.6839   -1.0345   -3.0116 H   0  0  0  0  0  0  0  0  0  0  0  0
   -3.8495    0.6596   -2.5382 H   0  0  0  0  0  0  0  0  0  0  0  0
   -5.4413   -2.2848   -0.7088 H   0  0  0  0  0  0  0  0  0  0  0  0
   -4.1605   -2.4478    0.4973 H   0  0  0  0  0  0  0  0  0  0  0  0
   -3.8737   -2.9063   -1.1847 H   0  0  0  0  0  0  0  0  0  0  0  0
   -6.6414   -0.3251   -0.6553 H   0  0  0  0  0  0  0  0  0  0  0  0
   -7.8770    1.2244    0.7877 H   0  0  0  0  0  0  0  0  0  0  0  0
   -6.6596    2.7222    2.3465 H   0  0  0  0  0  0  0  0  0  0  0  0
   -4.1982    2.6501    2.4529 H   0  0  0  0  0  0  0  0  0  0  0  0
   -2.1808    1.5208    1.8326 H   0  0  0  0  0  0  0  0  0  0  0  0
    0.0333    0.9708    1.1705 H   0  0  0  0  0  0  0  0  0  0  0  0
    2.1419   -2.5796    0.4483 H   0  0  0  0  0  0  0  0  0  0  0  0
    4.5857   -2.4940    0.7546 H   0  0  0  0  0  0  0  0  0  0  0  0
    2.0774    1.6143   -0.5878 H   0  0  0  0  0  0  0  0  0  0  0  0
    4.6698    2.7292   -0.5011 H   0  0  0  0  0  0  0  0  0  0  0  0
    9.2894    2.1053    0.2866 H   0  0  0  0  0  0  0  0  0  0  0  0
    9.4450   -0.2957    0.8891 H   0  0  0  0  0  0  0  0  0  0  0  0
    7.3530   -1.6782    0.9372 H   0  0  0  0  0  0  0  0  0  0  0  0
    0.5322   -2.1143   -1.7792 H   0  0  0  0  0  0  0  0  0  0  0  0
   -1.8811   -2.2118   -2.0963 H   0  0  0  0  0  0  0  0  0  0  0  0
  1  2  1  0
  2  3  1  0
  2  4  1  0
  4  5  2  0
  5  6  1  0
  6  7  2  0
  7  8  1  0
  8  9  2  0
  9 10  1  0
 10 11  1  0
 11 12  2  0
 12 13  1  0
 13 14  1  0
 14 15  2  0
 15 16  1  0
 16 17  2  0
 17 18  1  0
 18 19  2  0
 18 20  1  0
 20 21  1  0
 21 22  2  0
 22 23  1  0
 23 24  2  0
 24 25  1  0
 25 26  2  0
 13 27  2  0
 27 28  1  0
 28 29  2  0
 29  2  1  0
  9  4  1  0
 29 11  1  0
 19 14  1  0
 26 21  1  0
 26 17  1  0
  1 30  1  0
  1 31  1  0
  1 32  1  0
  3 33  1  0
  3 34  1  0
  3 35  1  0
  5 36  1  0
  6 37  1  0
  7 38  1  0
  8 39  1  0
 10 40  1  0
 12 41  1  0
 15 42  1  0
 16 43  1  0
 19 44  1  0
 20 45  1  0
 23 46  1  0
 24 47  1  0
 25 48  1  0
 27 49  1  0
 28 50  1  0
M  END
