
     RDKit          3D

 45 49  0  0  0  0  0  0  0  0999 V2000
   -3.2407   -2.2374    0.2617 C   0  0  0  0  0  0  0  0  0  0  0  0
   -2.8443   -0.8084    0.7054 C   0  0  0  0  0  0  0  0  0  0  0  0
   -3.0814   -0.6508    2.2280 C   0  0  0  0  0  0  0  0  0  0  0  0
   -3.7556    0.1968   -0.0320 C   0  0  0  0  0  0  0  0  0  0  0  0
   -5.1570    0.1703    0.1272 C   0  0  0  0  0  0  0  0  0  0  0  0
   -5.9797    1.0745   -0.5465 C   0  0  0  0  0  0  0  0  0  0  0  0
   -5.4195    2.0179   -1.3984 C   0  0  0  0  0  0  0  0  0  0  0  0
   -4.0370    2.0581   -1.5703 C   0  0  0  0  0  0  0  0  0  0  0  0
   -3.2006    1.1686   -0.8804 C   0  0  0  0  0  0  0  0  0  0  0  0
   -1.8208    1.1957   -1.1131 N   0  0  0  0  0  0  0  0  0  0  0  0
   -0.8949    0.3895   -0.4412 C   0  0  0  0  0  0  0  0  0  0  0  0
    0.4755    0.5342   -0.7137 C   0  0  0  0  0  0  0  0  0  0  0  0
    1.4407   -0.2834   -0.1061 C   0  0  0  0  0  0  0  0  0  0  0  0
    2.8744   -0.1128   -0.3956 C   0  0  0  0  0  0  0  0  0  0  0  0
    3.3458   -0.1211   -1.7381 C   0  0  0  0  0  0  0  0  0  0  0  0
    4.7025    0.0393   -2.0491 C   0  0  0  0  0  0  0  0  0  0  0  0
    5.5716    0.2065   -0.9929 C   0  0  0  0  0  0  0  0  0  0  0  0
    5.1333    0.2155    0.3191 C   0  0  0  0  0  0  0  0  0  0  0  0
    3.8007    0.0597    0.6505 C   0  0  0  0  0  0  0  0  0  0  0  0
    6.3054    0.4105    1.1714 C   0  0  0  0  0  0  0  0  0  0  0  0
    6.2940    0.4663    2.3840 O   0  0  0  0  0  0  0  0  0  0  0  0
    7.3753    0.5090    0.3358 N   0  0  0  0  0  0  0  0  0  0  0  0
    7.0215    0.3961   -0.9736 C   0  0  0  0  0  0  0  0  0  0  0  0
    7.7401    0.4399   -1.9510 O   0  0  0  0  0  0  0  0  0  0  0  0
    0.9940   -1.2703    0.7794 C   0  0  0  0  0  0  0  0  0  0  0  0
   -0.3696   -1.4387    1.0390 C   0  0  0  0  0  0  0  0  0  0  0  0
   -1.3367   -0.6176    0.4288 C   0  0  0  0  0  0  0  0  0  0  0  0
   -4.2943   -2.4574    0.4669 H   0  0  0  0  0  0  0  0  0  0  0  0
   -3.0815   -2.3739   -0.8153 H   0  0  0  0  0  0  0  0  0  0  0  0
   -2.6578   -3.0080    0.7785 H   0  0  0  0  0  0  0  0  0  0  0  0
   -2.4946   -1.3651    2.8160 H   0  0  0  0  0  0  0  0  0  0  0  0
   -4.1288   -0.8145    2.5046 H   0  0  0  0  0  0  0  0  0  0  0  0
   -2.8067    0.3560    2.5670 H   0  0  0  0  0  0  0  0  0  0  0  0
   -5.6272   -0.5629    0.7781 H   0  0  0  0  0  0  0  0  0  0  0  0
   -7.0572    1.0348   -0.4099 H   0  0  0  0  0  0  0  0  0  0  0  0
   -6.0559    2.7167   -1.9340 H   0  0  0  0  0  0  0  0  0  0  0  0
   -3.6131    2.7900   -2.2524 H   0  0  0  0  0  0  0  0  0  0  0  0
   -1.4592    2.0448   -1.5256 H   0  0  0  0  0  0  0  0  0  0  0  0
    0.7945    1.3081   -1.4085 H   0  0  0  0  0  0  0  0  0  0  0  0
    2.6385   -0.2688   -2.5549 H   0  0  0  0  0  0  0  0  0  0  0  0
    5.0564    0.0289   -3.0748 H   0  0  0  0  0  0  0  0  0  0  0  0
    3.4901    0.0828    1.6915 H   0  0  0  0  0  0  0  0  0  0  0  0
    8.3220    0.6466    0.6511 H   0  0  0  0  0  0  0  0  0  0  0  0
    1.7041   -1.9362    1.2660 H   0  0  0  0  0  0  0  0  0  0  0  0
   -0.6661   -2.2301    1.7234 H   0  0  0  0  0  0  0  0  0  0  0  0
  1  2  1  0
  2  3  1  0
  2  4  1  0
  4  5  2  0
  5  6  1  0
  6  7  2  0
  7  8  1  0
  8  9  2  0
  9 10  1  0
 10 11  1  0
 11 12  2  0
 12 13  1  0
 13 14  1  0
 14 15  2  0
 15 16  1  0
 16 17  2  0
 17 18  1  0
 18 19  2  0
 18 20  1  0
 20 21  2  0
 20 22  1  0
 22 23  1  0
 23 24  2  0
 13 25  2  0
 25 26  1  0
 26 27  2  0
 27  2  1  0
  9  4  1  0
 27 11  1  0
 19 14  1  0
 23 17  1  0
  1 28  1  0
  1 29  1  0
  1 30  1  0
  3 31  1  0
  3 32  1  0
  3 33  1  0
  5 34  1  0
  6 35  1  0
  7 36  1  0
  8 37  1  0
 10 38  1  0
 12 39  1  0
 15 40  1  0
 16 41  1  0
 19 42  1  0
 22 43  1  0
 25 44  1  0
 26 45  1  0
M  END
