
     RDKit          3D

 42 45  0  0  0  0  0  0  0  0999 V2000
   -3.1775    1.2830   -0.1861 C   0  0  0  0  0  0  0  0  0  0  0  0
   -2.0848    0.6788   -1.1010 C   0  0  0  0  0  0  0  0  0  0  0  0
   -1.8910    1.5795   -2.3463 C   0  0  0  0  0  0  0  0  0  0  0  0
   -2.5670   -0.7081   -1.5786 C   0  0  0  0  0  0  0  0  0  0  0  0
   -3.7543   -0.8548   -2.3263 C   0  0  0  0  0  0  0  0  0  0  0  0
   -4.1916   -2.1100   -2.7523 C   0  0  0  0  0  0  0  0  0  0  0  0
   -3.4560   -3.2443   -2.4330 C   0  0  0  0  0  0  0  0  0  0  0  0
   -2.2816   -3.1195   -1.6931 C   0  0  0  0  0  0  0  0  0  0  0  0
   -1.8215   -1.8603   -1.2811 C   0  0  0  0  0  0  0  0  0  0  0  0
   -0.6708   -1.7712   -0.4886 N   0  0  0  0  0  0  0  0  0  0  0  0
   -0.0969   -0.5634   -0.0736 C   0  0  0  0  0  0  0  0  0  0  0  0
    1.0918   -0.5843    0.6736 C   0  0  0  0  0  0  0  0  0  0  0  0
    1.6753    0.5954    1.1571 C   0  0  0  0  0  0  0  0  0  0  0  0
    2.9223    0.5625    1.9376 C   0  0  0  0  0  0  0  0  0  0  0  0
    2.8733    0.8493    3.3155 C   0  0  0  0  0  0  0  0  0  0  0  0
    4.0280    0.8315    4.1009 C   0  0  0  0  0  0  0  0  0  0  0  0
    5.2569    0.5277    3.5244 C   0  0  0  0  0  0  0  0  0  0  0  0
    5.3312    0.2417    2.1617 C   0  0  0  0  0  0  0  0  0  0  0  0
    4.1743    0.2573    1.3650 C   0  0  0  0  0  0  0  0  0  0  0  0
    4.3127   -0.0360   -0.0348 C   0  0  0  0  0  0  0  0  0  0  0  0
    4.4577   -0.2885   -1.1587 N   0  0  0  0  0  0  0  0  0  0  0  0
    1.0269    1.8066    0.8969 C   0  0  0  0  0  0  0  0  0  0  0  0
   -0.1705    1.8346    0.1772 C   0  0  0  0  0  0  0  0  0  0  0  0
   -0.7564    0.6514   -0.3133 C   0  0  0  0  0  0  0  0  0  0  0  0
   -3.3333    0.6616    0.7047 H   0  0  0  0  0  0  0  0  0  0  0  0
   -4.1431    1.3707   -0.6965 H   0  0  0  0  0  0  0  0  0  0  0  0
   -2.9182    2.2901    0.1592 H   0  0  0  0  0  0  0  0  0  0  0  0
   -1.5873    2.5977   -2.0795 H   0  0  0  0  0  0  0  0  0  0  0  0
   -1.1193    1.1712   -3.0110 H   0  0  0  0  0  0  0  0  0  0  0  0
   -2.8100    1.6786   -2.9344 H   0  0  0  0  0  0  0  0  0  0  0  0
   -4.3577    0.0122   -2.5838 H   0  0  0  0  0  0  0  0  0  0  0  0
   -5.1099   -2.1996   -3.3267 H   0  0  0  0  0  0  0  0  0  0  0  0
   -3.7972   -4.2250   -2.7522 H   0  0  0  0  0  0  0  0  0  0  0  0
   -1.7242   -4.0158   -1.4351 H   0  0  0  0  0  0  0  0  0  0  0  0
   -0.0415   -2.5614   -0.5429 H   0  0  0  0  0  0  0  0  0  0  0  0
    1.5658   -1.5402    0.8863 H   0  0  0  0  0  0  0  0  0  0  0  0
    1.9197    1.0834    3.7876 H   0  0  0  0  0  0  0  0  0  0  0  0
    3.9643    1.0538    5.1636 H   0  0  0  0  0  0  0  0  0  0  0  0
    6.1568    0.5136    4.1347 H   0  0  0  0  0  0  0  0  0  0  0  0
    6.2990    0.0075    1.7205 H   0  0  0  0  0  0  0  0  0  0  0  0
    1.4485    2.7436    1.2558 H   0  0  0  0  0  0  0  0  0  0  0  0
   -0.6429    2.7991    0.0064 H   0  0  0  0  0  0  0  0  0  0  0  0
  1  2  1  0
  2  3  1  0
  2  4  1  0
  4  5  2  0
  5  6  1  0
  6  7  2  0
  7  8  1  0
  8  9  2  0
  9 10  1  0
 10 11  1  0
 11 12  2  0
 12 13  1  0
 13 14  1  0
 14 15  2  0
 15 16  1  0
 16 17  2  0
 17 18  1  0
 18 19  2  0
 19 20  1  0
 20 21  3  0
 13 22  2  0
 22 23  1  0
 23 24  2  0
 24  2  1  0
  9  4  1  0
 24 11  1  0
 19 14  1  0
  1 25  1  0
  1 26  1  0
  1 27  1  0
  3 28  1  0
  3 29  1  0
  3 30  1  0
  5 31  1  0
  6 32  1  0
  7 33  1  0
  8 34  1  0
 10 35  1  0
 12 36  1  0
 15 37  1  0
 16 38  1  0
 17 39  1  0
 18 40  1  0
 22 41  1  0
 23 42  1  0
M  END
