
     RDKit          3D

 44 50  0  0  0  0  0  0  0  0999 V2000
    5.7774    1.1338   -2.3016 Si  0  0  0  0  0  4  0  0  0  0  0  0
    6.7483    0.2764   -0.9518 C   0  0  0  0  0  0  0  0  0  0  0  0
    5.9223   -0.1962   -0.0002 C   0  0  0  0  0  0  0  0  0  0  0  0
    6.3436   -0.8960    1.1946 C   0  0  0  0  0  0  0  0  0  0  0  0
    5.4053   -1.2963    2.0715 C   0  0  0  0  0  0  0  0  0  0  0  0
    3.9815   -1.0529    1.8507 C   0  0  0  0  0  0  0  0  0  0  0  0
    3.4914   -0.4270    0.7518 C   0  0  0  0  0  0  0  0  0  0  0  0
    2.0604   -0.2381    0.6399 C   0  0  0  0  0  0  0  0  0  0  0  0
    1.3181    0.7102    1.2462 C   0  0  0  0  0  0  0  0  0  0  0  0
   -0.1179    0.6427    0.9287 C   0  0  0  0  0  0  0  0  0  0  0  0
   -1.0746    1.5130    1.4339 C   0  0  0  0  0  0  0  0  0  0  0  0
   -2.4210    1.3299    1.0420 C   0  0  0  0  0  0  0  0  0  0  0  0
   -3.7504    2.3064    1.5616 S   0  0  0  0  0  0  0  0  0  0  0  0
   -4.8969    1.4111    0.6488 C   0  0  0  0  0  0  0  0  0  0  0  0
   -6.3085    1.6351    0.5637 C   0  0  0  0  0  0  0  0  0  0  0  0
   -7.1527    0.8291   -0.2235 C   0  0  0  0  0  0  0  0  0  0  0  0
   -6.4416   -0.1646   -0.8706 C   0  0  0  0  0  0  0  0  0  0  0  0
   -6.9815   -1.1086   -1.7097 C   0  0  0  0  0  0  0  0  0  0  0  0
   -5.9956   -1.9390   -2.1781 O   0  0  0  0  0  0  0  0  0  0  0  0
   -4.8079   -1.5195   -1.6301 C   0  0  0  0  0  0  0  0  0  0  0  0
   -5.0663   -0.4446   -0.8360 C   0  0  0  0  0  0  0  0  0  0  0  0
   -4.2296    0.3960   -0.0232 C   0  0  0  0  0  0  0  0  0  0  0  0
   -2.8215    0.3061    0.1662 C   0  0  0  0  0  0  0  0  0  0  0  0
   -1.8203   -0.5689   -0.3348 C   0  0  0  0  0  0  0  0  0  0  0  0
   -0.4910   -0.3878    0.0523 C   0  0  0  0  0  0  0  0  0  0  0  0
    1.0285   -1.3870   -0.4527 Si  0  0  0  0  0  4  0  0  0  0  0  0
    4.4777    0.0533   -0.2306 C   0  0  0  0  0  0  0  0  0  0  0  0
    4.2090    0.7325   -1.3650 C   0  0  0  0  0  0  0  0  0  0  0  0
    5.8616    0.4178   -3.5975 H   0  0  0  0  0  0  0  0  0  0  0  0
    6.0512    2.5901   -2.3567 H   0  0  0  0  0  0  0  0  0  0  0  0
    7.8238    0.2100   -0.9811 H   0  0  0  0  0  0  0  0  0  0  0  0
    7.3975   -1.0807    1.3676 H   0  0  0  0  0  0  0  0  0  0  0  0
    5.6866   -1.8199    2.9800 H   0  0  0  0  0  0  0  0  0  0  0  0
    3.3143   -1.4156    2.6290 H   0  0  0  0  0  0  0  0  0  0  0  0
    1.7142    1.4691    1.9084 H   0  0  0  0  0  0  0  0  0  0  0  0
   -0.8022    2.3156    2.1124 H   0  0  0  0  0  0  0  0  0  0  0  0
   -6.7452    2.4583    1.1279 H   0  0  0  0  0  0  0  0  0  0  0  0
   -8.2199    0.9892   -0.2951 H   0  0  0  0  0  0  0  0  0  0  0  0
   -7.9778   -1.3293   -2.0664 H   0  0  0  0  0  0  0  0  0  0  0  0
   -3.9444   -2.0958   -1.9219 H   0  0  0  0  0  0  0  0  0  0  0  0
   -2.0742   -1.3749   -1.0134 H   0  0  0  0  0  0  0  0  0  0  0  0
    0.9646   -2.7812    0.0582 H   0  0  0  0  0  0  0  0  0  0  0  0
    1.3187   -1.2424   -1.9035 H   0  0  0  0  0  0  0  0  0  0  0  0
    3.2451    1.0407   -1.7361 H   0  0  0  0  0  0  0  0  0  0  0  0
  1  2  1  0
  2  3  2  0
  3  4  1  0
  4  5  2  0
  5  6  1  0
  6  7  2  0
  7  8  1  0
  8  9  2  0
  9 10  1  0
 10 11  2  0
 11 12  1  0
 12 13  1  0
 13 14  1  0
 14 15  1  0
 15 16  2  0
 16 17  1  0
 17 18  2  0
 18 19  1  0
 19 20  1  0
 20 21  2  0
 21 22  1  0
 22 23  1  0
 23 24  1  0
 24 25  2  0
 25 26  1  0
  7 27  1  0
 27 28  2  0
 28  1  1  0
 27  3  1  0
 26  8  1  0
 25 10  1  0
 23 12  2  0
 22 14  2  0
 21 17  1  0
  1 29  1  0
  1 30  1  0
  2 31  1  0
  4 32  1  0
  5 33  1  0
  6 34  1  0
  9 35  1  0
 11 36  1  0
 15 37  1  0
 16 38  1  0
 18 39  1  0
 20 40  1  0
 24 41  1  0
 26 42  1  0
 26 43  1  0
 28 44  1  0
M  END
