
     RDKit          3D

 36 39  0  0  0  0  0  0  0  0999 V2000
   -1.1125   -0.2867    2.5235 C   0  0  0  0  0  0  0  0  0  0  0  0
   -1.0588    0.4426    1.1591 C   0  0  0  0  0  0  0  0  0  0  0  0
   -1.2042    1.9691    1.3779 C   0  0  0  0  0  0  0  0  0  0  0  0
   -2.2529   -0.0392    0.3066 C   0  0  0  0  0  0  0  0  0  0  0  0
   -3.5836    0.1457    0.7368 C   0  0  0  0  0  0  0  0  0  0  0  0
   -4.6613   -0.2985   -0.0310 C   0  0  0  0  0  0  0  0  0  0  0  0
   -4.4309   -0.9429   -1.2399 C   0  0  0  0  0  0  0  0  0  0  0  0
   -3.1230   -1.1367   -1.6805 C   0  0  0  0  0  0  0  0  0  0  0  0
   -2.0345   -0.6748   -0.9265 C   0  0  0  0  0  0  0  0  0  0  0  0
   -0.7311   -0.9270   -1.3675 N   0  0  0  0  0  0  0  0  0  0  0  0
    0.4217   -0.4693   -0.7202 C   0  0  0  0  0  0  0  0  0  0  0  0
    1.6814   -0.7359   -1.2799 C   0  0  0  0  0  0  0  0  0  0  0  0
    2.8620   -0.3390   -0.6384 C   0  0  0  0  0  0  0  0  0  0  0  0
    4.1690   -0.6074   -1.2286 C   0  0  0  0  0  0  0  0  0  0  0  0
    5.3475   -0.2373   -0.6108 N   0  0  0  0  0  0  0  0  0  0  0  0
    6.2502   -0.6569   -1.4594 C   0  0  0  0  0  0  0  0  0  0  0  0
    5.7349   -1.2582   -2.5586 O   0  0  0  0  0  0  0  0  0  0  0  0
    4.3496   -1.2268   -2.4092 N   0  0  0  0  0  0  0  0  0  0  0  0
    2.7637    0.3196    0.5902 C   0  0  0  0  0  0  0  0  0  0  0  0
    1.5141    0.5699    1.1643 C   0  0  0  0  0  0  0  0  0  0  0  0
    0.3237    0.1754    0.5228 C   0  0  0  0  0  0  0  0  0  0  0  0
   -2.0552   -0.1071    3.0522 H   0  0  0  0  0  0  0  0  0  0  0  0
   -0.3130    0.0384    3.1986 H   0  0  0  0  0  0  0  0  0  0  0  0
   -1.0110   -1.3716    2.3945 H   0  0  0  0  0  0  0  0  0  0  0  0
   -0.4091    2.3754    2.0127 H   0  0  0  0  0  0  0  0  0  0  0  0
   -1.1688    2.5086    0.4231 H   0  0  0  0  0  0  0  0  0  0  0  0
   -2.1493    2.2306    1.8664 H   0  0  0  0  0  0  0  0  0  0  0  0
   -3.7970    0.6365    1.6833 H   0  0  0  0  0  0  0  0  0  0  0  0
   -5.6784   -0.1468    0.3207 H   0  0  0  0  0  0  0  0  0  0  0  0
   -5.2655   -1.3006   -1.8364 H   0  0  0  0  0  0  0  0  0  0  0  0
   -2.9559   -1.6562   -2.6201 H   0  0  0  0  0  0  0  0  0  0  0  0
   -0.6303   -1.1800   -2.3412 H   0  0  0  0  0  0  0  0  0  0  0  0
    1.7369   -1.2639   -2.2295 H   0  0  0  0  0  0  0  0  0  0  0  0
    7.3254   -0.5875   -1.3987 H   0  0  0  0  0  0  0  0  0  0  0  0
    3.6609    0.6395    1.1172 H   0  0  0  0  0  0  0  0  0  0  0  0
    1.4853    1.0757    2.1267 H   0  0  0  0  0  0  0  0  0  0  0  0
  1  2  1  0
  2  3  1  0
  2  4  1  0
  4  5  2  0
  5  6  1  0
  6  7  2  0
  7  8  1  0
  8  9  2  0
  9 10  1  0
 10 11  1  0
 11 12  2  0
 12 13  1  0
 13 14  1  0
 14 15  1  0
 15 16  2  0
 16 17  1  0
 17 18  1  0
 13 19  2  0
 19 20  1  0
 20 21  2  0
 21  2  1  0
  9  4  1  0
 21 11  1  0
 18 14  2  0
  1 22  1  0
  1 23  1  0
  1 24  1  0
  3 25  1  0
  3 26  1  0
  3 27  1  0
  5 28  1  0
  6 29  1  0
  7 30  1  0
  8 31  1  0
 10 32  1  0
 12 33  1  0
 16 34  1  0
 19 35  1  0
 20 36  1  0
M  END
