
     RDKit          3D

 34 38  0  0  0  0  0  0  0  0999 V2000
   -2.9435    0.4761    1.5515 C   0  0  0  0  0  0  0  0  0  0  0  0
   -2.4652    0.4620    0.0985 C   0  0  0  0  0  0  0  0  0  0  0  0
   -2.6484    1.8298   -0.5618 C   0  0  0  0  0  0  0  0  0  0  0  0
   -3.1450   -0.6539   -0.7111 C   0  0  0  0  0  0  0  0  0  0  0  0
   -4.4617   -0.9840   -1.1052 C   0  0  0  0  0  0  0  0  0  0  0  0
   -4.4654   -2.1514   -1.8549 C   0  0  0  0  0  0  0  0  0  0  0  0
   -2.8803   -2.8205   -2.0650 S   0  0  0  0  0  0  0  0  0  0  0  0
   -2.2253   -1.5762   -1.1762 C   0  0  0  0  0  0  0  0  0  0  0  0
   -0.9291   -1.1956   -0.7530 C   0  0  0  0  0  0  0  0  0  0  0  0
    0.6116   -1.7892   -0.9293 S   0  0  0  0  0  0  0  0  0  0  0  0
    1.2611   -0.4737    0.0110 C   0  0  0  0  0  0  0  0  0  0  0  0
    2.7045   -0.3981    0.2449 C   0  0  0  0  0  0  0  0  0  0  0  0
    3.5034   -1.5193    0.5753 C   0  0  0  0  0  0  0  0  0  0  0  0
    4.8978   -1.4493    0.8071 C   0  0  0  0  0  0  0  0  0  0  0  0
    5.6259   -0.2521    0.7330 C   0  0  0  0  0  0  0  0  0  0  0  0
    4.8867    0.9105    0.4106 C   0  0  0  0  0  0  0  0  0  0  0  0
    5.3978    2.1457    0.2944 N   0  0  0  0  0  0  0  0  0  0  0  0
    4.1331    3.1418   -0.1027 S   0  0  0  0  0  0  0  0  0  0  0  0
    2.8794    2.0586   -0.1322 N   0  0  0  0  0  0  0  0  0  0  0  0
    3.3937    0.8490    0.1609 C   0  0  0  0  0  0  0  0  0  0  0  0
    0.2549    0.3946    0.4324 C   0  0  0  0  0  0  0  0  0  0  0  0
   -1.0155   -0.0321   -0.0156 C   0  0  0  0  0  0  0  0  0  0  0  0
   -2.8145   -0.5022    2.0304 H   0  0  0  0  0  0  0  0  0  0  0  0
   -4.0069    0.7338    1.6151 H   0  0  0  0  0  0  0  0  0  0  0  0
   -2.3828    1.2073    2.1451 H   0  0  0  0  0  0  0  0  0  0  0  0
   -2.0784    2.6029   -0.0340 H   0  0  0  0  0  0  0  0  0  0  0  0
   -3.7025    2.1297   -0.5638 H   0  0  0  0  0  0  0  0  0  0  0  0
   -2.3071    1.8258   -1.6042 H   0  0  0  0  0  0  0  0  0  0  0  0
   -5.3547   -0.4200   -0.8674 H   0  0  0  0  0  0  0  0  0  0  0  0
   -5.3151   -2.6543   -2.2958 H   0  0  0  0  0  0  0  0  0  0  0  0
    3.0296   -2.4979    0.6690 H   0  0  0  0  0  0  0  0  0  0  0  0
    5.4295   -2.3685    1.0560 H   0  0  0  0  0  0  0  0  0  0  0  0
    6.6937   -0.2125    0.9123 H   0  0  0  0  0  0  0  0  0  0  0  0
    0.4388    1.2830    1.0247 H   0  0  0  0  0  0  0  0  0  0  0  0
  1  2  1  0
  2  3  1  0
  2  4  1  0
  4  5  1  0
  5  6  2  0
  6  7  1  0
  7  8  1  0
  8  9  1  0
  9 10  1  0
 10 11  1  0
 11 12  1  0
 12 13  2  0
 13 14  1  0
 14 15  2  0
 15 16  1  0
 16 17  2  0
 17 18  1  0
 18 19  1  0
 19 20  2  0
 11 21  2  0
 21 22  1  0
 22  2  1  0
  8  4  2  0
 22  9  2  0
 20 12  1  0
 20 16  1  0
  1 23  1  0
  1 24  1  0
  1 25  1  0
  3 26  1  0
  3 27  1  0
  3 28  1  0
  5 29  1  0
  6 30  1  0
 13 31  1  0
 14 32  1  0
 15 33  1  0
 21 34  1  0
M  END
