
     RDKit          3D

 42 43  0  0  0  0  0  0  0  0999 V2000
   -6.2006   -0.4486   -0.2652 C   0  0  0  0  0  0  0  0  0  0  0  0
   -4.7302   -0.1421    0.0819 C   0  0  0  0  0  0  0  0  0  0  0  0
   -4.6612    1.3043    0.6107 C   0  0  0  0  0  0  0  0  0  0  0  0
   -3.8828   -0.3042   -1.1895 C   0  0  0  0  0  0  0  0  0  0  0  0
   -2.3895   -0.2160   -0.9569 C   0  0  0  0  0  0  0  0  0  0  0  0
   -1.6377    0.0667   -1.8923 O   0  0  0  0  0  0  0  0  0  0  0  0
   -1.8712   -0.5470    0.4022 C   0  0  0  0  0  0  0  0  0  0  0  0
   -0.5716   -0.3811    0.7077 C   0  0  0  0  0  0  0  0  0  0  0  0
    0.4455    0.1038   -0.0901 N   0  0  0  0  0  0  0  0  0  0  0  0
    1.8607   -0.1508    0.1451 C   0  0  0  0  0  0  0  0  0  0  0  0
    2.7151    0.7774   -0.7224 C   0  0  0  0  0  0  0  0  0  0  0  0
    4.1910    0.5485   -0.5076 C   0  0  0  0  0  0  0  0  0  0  0  0
    4.8816    1.2540    0.4886 C   0  0  0  0  0  0  0  0  0  0  0  0
    6.2432    1.0284    0.7030 C   0  0  0  0  0  0  0  0  0  0  0  0
    6.9128    0.0927   -0.0785 C   0  0  0  0  0  0  0  0  0  0  0  0
    8.2413   -0.1595    0.0971 O   0  0  0  0  0  0  0  0  0  0  0  0
    6.2438   -0.6188   -1.0666 C   0  0  0  0  0  0  0  0  0  0  0  0
    4.8834   -0.3935   -1.2811 C   0  0  0  0  0  0  0  0  0  0  0  0
   -2.7840   -1.0501    1.4677 C   0  0  0  0  0  0  0  0  0  0  0  0
   -2.3630   -1.4256    2.5617 O   0  0  0  0  0  0  0  0  0  0  0  0
   -4.2603   -1.1427    1.1490 C   0  0  0  0  0  0  0  0  0  0  0  0
   -6.3151   -1.4694   -0.6472 H   0  0  0  0  0  0  0  0  0  0  0  0
   -6.8441   -0.3501    0.6164 H   0  0  0  0  0  0  0  0  0  0  0  0
   -6.5773    0.2372   -1.0325 H   0  0  0  0  0  0  0  0  0  0  0  0
   -5.0250    2.0139   -0.1412 H   0  0  0  0  0  0  0  0  0  0  0  0
   -3.6435    1.6054    0.8772 H   0  0  0  0  0  0  0  0  0  0  0  0
   -5.2826    1.4242    1.5056 H   0  0  0  0  0  0  0  0  0  0  0  0
   -4.1551    0.4704   -1.9173 H   0  0  0  0  0  0  0  0  0  0  0  0
   -4.0720   -1.2794   -1.6559 H   0  0  0  0  0  0  0  0  0  0  0  0
   -0.2147   -0.6319    1.7075 H   0  0  0  0  0  0  0  0  0  0  0  0
    0.1708    0.1880   -1.0778 H   0  0  0  0  0  0  0  0  0  0  0  0
    2.0960    0.0080    1.2047 H   0  0  0  0  0  0  0  0  0  0  0  0
    2.0816   -1.1997   -0.0864 H   0  0  0  0  0  0  0  0  0  0  0  0
    2.4710    1.8259   -0.5070 H   0  0  0  0  0  0  0  0  0  0  0  0
    2.4732    0.6329   -1.7836 H   0  0  0  0  0  0  0  0  0  0  0  0
    4.3607    1.9851    1.1036 H   0  0  0  0  0  0  0  0  0  0  0  0
    6.7580    1.5872    1.4778 H   0  0  0  0  0  0  0  0  0  0  0  0
    8.5715    0.4111    0.8101 H   0  0  0  0  0  0  0  0  0  0  0  0
    6.7796   -1.3472   -1.6684 H   0  0  0  0  0  0  0  0  0  0  0  0
    4.3692   -0.9571   -2.0564 H   0  0  0  0  0  0  0  0  0  0  0  0
   -4.8158   -0.9782    2.0808 H   0  0  0  0  0  0  0  0  0  0  0  0
   -4.4526   -2.1735    0.8255 H   0  0  0  0  0  0  0  0  0  0  0  0
  1  2  1  0
  2  3  1  0
  2  4  1  0
  4  5  1  0
  5  6  2  0
  5  7  1  0
  7  8  2  3
  8  9  1  0
  9 10  1  0
 10 11  1  0
 11 12  1  0
 12 13  2  0
 13 14  1  0
 14 15  2  0
 15 16  1  0
 15 17  1  0
 17 18  2  0
  7 19  1  0
 19 20  2  0
 19 21  1  0
 21  2  1  0
 18 12  1  0
  1 22  1  0
  1 23  1  0
  1 24  1  0
  3 25  1  0
  3 26  1  0
  3 27  1  0
  4 28  1  0
  4 29  1  0
  8 30  1  0
  9 31  1  0
 10 32  1  0
 10 33  1  0
 11 34  1  0
 11 35  1  0
 13 36  1  0
 14 37  1  0
 16 38  1  0
 17 39  1  0
 18 40  1  0
 21 41  1  0
 21 42  1  0
M  END
