
     RDKit          3D

 46 52  0  0  0  0  0  0  0  0999 V2000
   -5.7530    0.7681   -2.2229 Si  0  0  0  0  0  4  0  0  0  0  0  0
   -6.6865    0.0456   -0.7717 C   0  0  0  0  0  0  0  0  0  0  0  0
   -5.8436   -0.2501    0.2349 C   0  0  0  0  0  0  0  0  0  0  0  0
   -6.2358   -0.8066    1.5122 C   0  0  0  0  0  0  0  0  0  0  0  0
   -5.2841   -1.0342    2.4354 C   0  0  0  0  0  0  0  0  0  0  0  0
   -3.8740   -0.7447    2.1849 C   0  0  0  0  0  0  0  0  0  0  0  0
   -3.4096   -0.2447    1.0127 C   0  0  0  0  0  0  0  0  0  0  0  0
   -1.9904    0.0046    0.8772 C   0  0  0  0  0  0  0  0  0  0  0  0
   -1.3057    1.0589    1.3555 C   0  0  0  0  0  0  0  0  0  0  0  0
    0.1348    1.0289    1.0487 C   0  0  0  0  0  0  0  0  0  0  0  0
    1.0048    2.0220    1.4532 C   0  0  0  0  0  0  0  0  0  0  0  0
    2.3579    1.9195    1.1211 C   0  0  0  0  0  0  0  0  0  0  0  0
    2.9099    0.8456    0.3830 C   0  0  0  0  0  0  0  0  0  0  0  0
    4.3295    0.8801    0.1173 C   0  0  0  0  0  0  0  0  0  0  0  0
    5.0750    1.9164    0.5722 N   0  0  0  0  0  0  0  0  0  0  0  0
    6.4066    1.9672    0.3337 C   0  0  0  0  0  0  0  0  0  0  0  0
    7.1025    1.0080   -0.3666 C   0  0  0  0  0  0  0  0  0  0  0  0
    6.3858   -0.0706   -0.8521 C   0  0  0  0  0  0  0  0  0  0  0  0
    4.9905   -0.1451   -0.6145 C   0  0  0  0  0  0  0  0  0  0  0  0
    4.1234   -1.1795   -1.0439 C   0  0  0  0  0  0  0  0  0  0  0  0
    4.5560   -2.2691   -1.7673 C   0  0  0  0  0  0  0  0  0  0  0  0
    3.2766   -3.3404   -2.1349 S   0  0  0  0  0  0  0  0  0  0  0  0
    2.1377   -2.3452   -1.3240 C   0  0  0  0  0  0  0  0  0  0  0  0
    2.7012   -1.2140   -0.7775 C   0  0  0  0  0  0  0  0  0  0  0  0
    1.9961   -0.1993   -0.0430 C   0  0  0  0  0  0  0  0  0  0  0  0
    0.6110   -0.0825    0.3038 C   0  0  0  0  0  0  0  0  0  0  0  0
   -0.8859   -1.1927   -0.0454 Si  0  0  0  0  0  4  0  0  0  0  0  0
   -4.4129    0.0456   -0.0257 C   0  0  0  0  0  0  0  0  0  0  0  0
   -4.1727    0.5819   -1.2402 C   0  0  0  0  0  0  0  0  0  0  0  0
   -5.7882   -0.1176   -3.4119 H   0  0  0  0  0  0  0  0  0  0  0  0
   -6.1060    2.1867   -2.4717 H   0  0  0  0  0  0  0  0  0  0  0  0
   -7.7565   -0.0831   -0.7924 H   0  0  0  0  0  0  0  0  0  0  0  0
   -7.2794   -1.0240    1.7076 H   0  0  0  0  0  0  0  0  0  0  0  0
   -5.5438   -1.4467    3.4054 H   0  0  0  0  0  0  0  0  0  0  0  0
   -3.1943   -0.9638    3.0051 H   0  0  0  0  0  0  0  0  0  0  0  0
   -1.7469    1.8739    1.9147 H   0  0  0  0  0  0  0  0  0  0  0  0
    0.6553    2.8783    2.0230 H   0  0  0  0  0  0  0  0  0  0  0  0
    3.0079    2.7276    1.4619 H   0  0  0  0  0  0  0  0  0  0  0  0
    6.9114    2.8390    0.7410 H   0  0  0  0  0  0  0  0  0  0  0  0
    8.1700    1.0983   -0.5288 H   0  0  0  0  0  0  0  0  0  0  0  0
    6.9082   -0.8421   -1.4077 H   0  0  0  0  0  0  0  0  0  0  0  0
    5.5504   -2.5147   -2.1110 H   0  0  0  0  0  0  0  0  0  0  0  0
    1.1213   -2.6959   -1.3234 H   0  0  0  0  0  0  0  0  0  0  0  0
   -0.7550   -2.5124    0.6259 H   0  0  0  0  0  0  0  0  0  0  0  0
   -1.1753   -1.2684   -1.5018 H   0  0  0  0  0  0  0  0  0  0  0  0
   -3.2243    0.8912   -1.6485 H   0  0  0  0  0  0  0  0  0  0  0  0
  1  2  1  0
  2  3  2  0
  3  4  1  0
  4  5  2  0
  5  6  1  0
  6  7  2  0
  7  8  1  0
  8  9  2  0
  9 10  1  0
 10 11  2  0
 11 12  1  0
 12 13  2  0
 13 14  1  0
 14 15  2  0
 15 16  1  0
 16 17  2  0
 17 18  1  0
 18 19  2  0
 19 20  1  0
 20 21  2  0
 21 22  1  0
 22 23  1  0
 23 24  2  0
 24 25  1  0
 25 26  2  0
 26 27  1  0
  7 28  1  0
 28 29  2  0
 29  1  1  0
 28  3  1  0
 27  8  1  0
 26 10  1  0
 25 13  1  0
 19 14  1  0
 24 20  1  0
  1 30  1  0
  1 31  1  0
  2 32  1  0
  4 33  1  0
  5 34  1  0
  6 35  1  0
  9 36  1  0
 11 37  1  0
 12 38  1  0
 16 39  1  0
 17 40  1  0
 18 41  1  0
 21 42  1  0
 23 43  1  0
 27 44  1  0
 27 45  1  0
 29 46  1  0
M  END
