
     RDKit          3D

 40 41  0  0  0  0  0  0  0  0999 V2000
   -4.4294    1.2838   -0.5998 C   0  0  0  0  0  0  0  0  0  0  0  0
   -4.2819   -0.2258   -0.3253 C   0  0  0  0  0  0  0  0  0  0  0  0
   -5.6973   -0.8271   -0.2201 C   0  0  0  0  0  0  0  0  0  0  0  0
   -3.5440   -0.4756    0.9989 C   0  0  0  0  0  0  0  0  0  0  0  0
   -2.0779   -0.0993    0.9739 C   0  0  0  0  0  0  0  0  0  0  0  0
   -1.4841    0.1282    2.0298 O   0  0  0  0  0  0  0  0  0  0  0  0
   -1.3822   -0.0838   -0.3454 C   0  0  0  0  0  0  0  0  0  0  0  0
   -0.1200    0.3663   -0.4611 C   0  0  0  0  0  0  0  0  0  0  0  0
    0.7087    0.8691    0.5186 N   0  0  0  0  0  0  0  0  0  0  0  0
    2.1528    1.0298    0.4079 C   0  0  0  0  0  0  0  0  0  0  0  0
    2.8719   -0.2876    0.6900 C   0  0  0  0  0  0  0  0  0  0  0  0
    4.3582   -0.1377    0.5040 C   0  0  0  0  0  0  0  0  0  0  0  0
    4.9711   -0.5550   -0.6752 C   0  0  0  0  0  0  0  0  0  0  0  0
    6.3452   -0.3818   -0.8164 C   0  0  0  0  0  0  0  0  0  0  0  0
    7.0676    0.2028    0.2159 C   0  0  0  0  0  0  0  0  0  0  0  0
    6.3814    0.5927    1.3527 C   0  0  0  0  0  0  0  0  0  0  0  0
    5.0489    0.4390    1.5170 N   0  0  0  0  0  0  0  0  0  0  0  0
   -2.0775   -0.5413   -1.5818 C   0  0  0  0  0  0  0  0  0  0  0  0
   -1.4867   -0.6547   -2.6558 O   0  0  0  0  0  0  0  0  0  0  0  0
   -3.5371   -0.9250   -1.4730 C   0  0  0  0  0  0  0  0  0  0  0  0
   -4.9856    1.7753    0.2063 H   0  0  0  0  0  0  0  0  0  0  0  0
   -4.9760    1.4602   -1.5331 H   0  0  0  0  0  0  0  0  0  0  0  0
   -3.4638    1.7913   -0.6860 H   0  0  0  0  0  0  0  0  0  0  0  0
   -6.2608   -0.6769   -1.1476 H   0  0  0  0  0  0  0  0  0  0  0  0
   -6.2646   -0.3635    0.5946 H   0  0  0  0  0  0  0  0  0  0  0  0
   -5.6585   -1.9049   -0.0265 H   0  0  0  0  0  0  0  0  0  0  0  0
   -3.5922   -1.5373    1.2712 H   0  0  0  0  0  0  0  0  0  0  0  0
   -4.0233    0.0958    1.8034 H   0  0  0  0  0  0  0  0  0  0  0  0
    0.3628    0.3722   -1.4391 H   0  0  0  0  0  0  0  0  0  0  0  0
    0.3447    0.7622    1.4740 H   0  0  0  0  0  0  0  0  0  0  0  0
    2.4091    1.4094   -0.5890 H   0  0  0  0  0  0  0  0  0  0  0  0
    2.4718    1.7954    1.1247 H   0  0  0  0  0  0  0  0  0  0  0  0
    2.4908   -1.0854    0.0408 H   0  0  0  0  0  0  0  0  0  0  0  0
    2.6704   -0.6117    1.7186 H   0  0  0  0  0  0  0  0  0  0  0  0
    4.3937   -1.0078   -1.4747 H   0  0  0  0  0  0  0  0  0  0  0  0
    6.8469   -0.6995   -1.7258 H   0  0  0  0  0  0  0  0  0  0  0  0
    8.1384    0.3519    0.1368 H   0  0  0  0  0  0  0  0  0  0  0  0
    6.8993    1.0551    2.1879 H   0  0  0  0  0  0  0  0  0  0  0  0
   -4.0197   -0.6844   -2.4283 H   0  0  0  0  0  0  0  0  0  0  0  0
   -3.5709   -2.0145   -1.3487 H   0  0  0  0  0  0  0  0  0  0  0  0
  1  2  1  0
  2  3  1  0
  2  4  1  0
  4  5  1  0
  5  6  2  0
  5  7  1  0
  7  8  2  3
  8  9  1  0
  9 10  1  0
 10 11  1  0
 11 12  1  0
 12 13  2  0
 13 14  1  0
 14 15  2  0
 15 16  1  0
 16 17  2  0
  7 18  1  0
 18 19  2  0
 18 20  1  0
 20  2  1  0
 17 12  1  0
  1 21  1  0
  1 22  1  0
  1 23  1  0
  3 24  1  0
  3 25  1  0
  3 26  1  0
  4 27  1  0
  4 28  1  0
  8 29  1  0
  9 30  1  0
 10 31  1  0
 10 32  1  0
 11 33  1  0
 11 34  1  0
 13 35  1  0
 14 36  1  0
 15 37  1  0
 16 38  1  0
 20 39  1  0
 20 40  1  0
M  END
