
     RDKit          3D

 45 47  0  0  0  0  0  0  0  0999 V2000
   -4.4588    0.7112   -1.2117 C   0  0  0  0  0  0  0  0  0  0  0  0
   -4.3180    1.5590    0.0665 C   0  0  0  0  0  0  0  0  0  0  0  0
   -4.9384    2.9458   -0.2258 C   0  0  0  0  0  0  0  0  0  0  0  0
   -5.0725    0.9495    1.2600 C   0  0  0  0  0  0  0  0  0  0  0  0
   -4.9120   -0.4749    1.4364 N   0  0  0  0  0  0  0  0  0  0  0  0
   -3.7720   -1.2037    1.6534 C   0  0  0  0  0  0  0  0  0  0  0  0
   -3.9420   -2.3601    2.0478 O   0  0  0  0  0  0  0  0  0  0  0  0
   -2.4714   -0.6244    1.3964 C   0  0  0  0  0  0  0  0  0  0  0  0
   -1.0779   -1.5953    1.7333 S   0  0  0  0  0  0  0  0  0  0  0  0
   -0.0726   -0.3387    1.1988 C   0  0  0  0  0  0  0  0  0  0  0  0
    1.2602   -0.6287    1.2615 N   0  0  0  0  0  0  0  0  0  0  0  0
    2.2363    0.2721    0.8805 C   0  0  0  0  0  0  0  0  0  0  0  0
    2.0518    1.4175    0.4788 O   0  0  0  0  0  0  0  0  0  0  0  0
    3.6533   -0.3160    1.0199 C   0  0  0  0  0  0  0  0  0  0  0  0
    4.3692   -0.3096   -0.2661 N   0  0  0  0  0  0  0  0  0  0  0  0
    5.8126   -0.5438   -0.0696 C   0  0  0  0  0  0  0  0  0  0  0  0
    6.4905   -1.0003   -1.3689 C   0  0  0  0  0  0  0  0  0  0  0  0
    6.0014   -2.2695   -1.8246 O   0  0  0  0  0  0  0  0  0  0  0  0
    4.6347   -2.5115   -1.4647 C   0  0  0  0  0  0  0  0  0  0  0  0
    3.8094   -1.2271   -1.2774 C   0  0  0  0  0  0  0  0  0  0  0  0
   -0.6731    0.7428    0.7927 N   0  0  0  0  0  0  0  0  0  0  0  0
   -2.0540    0.5950    0.8824 C   0  0  0  0  0  0  0  0  0  0  0  0
   -2.8437    1.7837    0.4384 C   0  0  0  0  0  0  0  0  0  0  0  0
   -3.9970   -0.2760   -1.1158 H   0  0  0  0  0  0  0  0  0  0  0  0
   -5.5144    0.5586   -1.4660 H   0  0  0  0  0  0  0  0  0  0  0  0
   -3.9816    1.2065   -2.0658 H   0  0  0  0  0  0  0  0  0  0  0  0
   -5.9910    2.8564   -0.5162 H   0  0  0  0  0  0  0  0  0  0  0  0
   -4.8906    3.5967    0.6549 H   0  0  0  0  0  0  0  0  0  0  0  0
   -4.4116    3.4515   -1.0430 H   0  0  0  0  0  0  0  0  0  0  0  0
   -6.1519    1.1047    1.1367 H   0  0  0  0  0  0  0  0  0  0  0  0
   -4.7862    1.4360    2.2009 H   0  0  0  0  0  0  0  0  0  0  0  0
   -5.7314   -1.0009    1.7176 H   0  0  0  0  0  0  0  0  0  0  0  0
    1.4985   -1.5488    1.5966 H   0  0  0  0  0  0  0  0  0  0  0  0
    4.1686    0.3245    1.7479 H   0  0  0  0  0  0  0  0  0  0  0  0
    3.6226   -1.3272    1.4439 H   0  0  0  0  0  0  0  0  0  0  0  0
    6.2813    0.3801    0.2857 H   0  0  0  0  0  0  0  0  0  0  0  0
    5.9717   -1.3192    0.6911 H   0  0  0  0  0  0  0  0  0  0  0  0
    7.5696   -1.1022   -1.2146 H   0  0  0  0  0  0  0  0  0  0  0  0
    6.3438   -0.2657   -2.1698 H   0  0  0  0  0  0  0  0  0  0  0  0
    4.6285   -3.1094   -0.5454 H   0  0  0  0  0  0  0  0  0  0  0  0
    4.1932   -3.1280   -2.2550 H   0  0  0  0  0  0  0  0  0  0  0  0
    2.7663   -1.4886   -1.0694 H   0  0  0  0  0  0  0  0  0  0  0  0
    3.8045   -0.6824   -2.2299 H   0  0  0  0  0  0  0  0  0  0  0  0
   -2.7799    2.5282    1.2453 H   0  0  0  0  0  0  0  0  0  0  0  0
   -2.3258    2.2326   -0.4213 H   0  0  0  0  0  0  0  0  0  0  0  0
  1  2  1  0
  2  3  1  0
  2  4  1  0
  4  5  1  0
  5  6  1  0
  6  7  2  0
  6  8  1  0
  8  9  1  0
  9 10  1  0
 10 11  1  0
 11 12  1  0
 12 13  2  0
 12 14  1  0
 14 15  1  0
 15 16  1  0
 16 17  1  0
 17 18  1  0
 18 19  1  0
 19 20  1  0
 10 21  2  0
 21 22  1  0
 22 23  1  0
 23  2  1  0
 22  8  2  0
 20 15  1  0
  1 24  1  0
  1 25  1  0
  1 26  1  0
  3 27  1  0
  3 28  1  0
  3 29  1  0
  4 30  1  0
  4 31  1  0
  5 32  1  0
 11 33  1  0
 14 34  1  0
 14 35  1  0
 16 36  1  0
 16 37  1  0
 17 38  1  0
 17 39  1  0
 19 40  1  0
 19 41  1  0
 20 42  1  0
 20 43  1  0
 23 44  1  0
 23 45  1  0
M  END
