
     RDKit          3D

 33 34  0  0  0  0  0  0  0  0999 V2000
   -4.0990   -1.1655   -0.5689 C   0  0  0  0  0  0  0  0  0  0  0  0
   -3.4010    0.1332   -0.2633 C   0  0  0  0  0  0  0  0  0  0  0  0
   -2.0747    0.3633   -0.3939 C   0  0  0  0  0  0  0  0  0  0  0  0
   -1.1447   -0.6387   -1.0222 C   0  0  0  0  0  0  0  0  0  0  0  0
   -1.4918    1.6933    0.0332 C   0  0  0  0  0  0  0  0  0  0  0  0
   -0.2562    2.0491    0.2180 N   0  0  0  0  0  0  0  0  0  0  0  0
    0.6719    1.0048    0.0754 O   0  0  0  0  0  0  0  0  0  0  0  0
    2.2435    1.4585    0.2757 S   0  0  0  0  0  6  0  0  0  0  0  0
    2.4581    1.8707    1.6514 O   0  0  0  0  0  0  0  0  0  0  0  0
    2.6399    2.3080   -0.8335 O   0  0  0  0  0  0  0  0  0  0  0  0
    3.0971   -0.0943    0.0708 C   0  0  0  0  0  0  0  0  0  0  0  0
    3.6637   -0.4203   -1.1652 C   0  0  0  0  0  0  0  0  0  0  0  0
    4.3299   -1.6369   -1.3119 C   0  0  0  0  0  0  0  0  0  0  0  0
    4.4320   -2.5136   -0.2299 C   0  0  0  0  0  0  0  0  0  0  0  0
    3.8732   -2.1777    1.0047 C   0  0  0  0  0  0  0  0  0  0  0  0
    3.2051   -0.9636    1.1613 C   0  0  0  0  0  0  0  0  0  0  0  0
   -2.4722    2.7753    0.3034 C   0  0  0  0  0  0  0  0  0  0  0  0
   -3.7800    2.5476    0.4012 C   0  0  0  0  0  0  0  0  0  0  0  0
   -4.3286    1.2009    0.2120 C   0  0  0  0  0  0  0  0  0  0  0  0
   -5.5212    0.9970    0.4066 O   0  0  0  0  0  0  0  0  0  0  0  0
   -4.8051   -1.4256    0.2278 H   0  0  0  0  0  0  0  0  0  0  0  0
   -3.4148   -2.0146   -0.6428 H   0  0  0  0  0  0  0  0  0  0  0  0
   -4.6531   -1.0853   -1.5097 H   0  0  0  0  0  0  0  0  0  0  0  0
   -1.6671   -1.3882   -1.6231 H   0  0  0  0  0  0  0  0  0  0  0  0
   -0.5684   -1.1674   -0.2567 H   0  0  0  0  0  0  0  0  0  0  0  0
   -0.4611   -0.1487   -1.7240 H   0  0  0  0  0  0  0  0  0  0  0  0
    3.5959    0.2613   -2.0105 H   0  0  0  0  0  0  0  0  0  0  0  0
    4.7764   -1.9008   -2.2680 H   0  0  0  0  0  0  0  0  0  0  0  0
    4.9568   -3.4592   -0.3472 H   0  0  0  0  0  0  0  0  0  0  0  0
    3.9659   -2.8606    1.8461 H   0  0  0  0  0  0  0  0  0  0  0  0
    2.7810   -0.7018    2.1285 H   0  0  0  0  0  0  0  0  0  0  0  0
   -2.0652    3.7668    0.4752 H   0  0  0  0  0  0  0  0  0  0  0  0
   -4.4862    3.3329    0.6414 H   0  0  0  0  0  0  0  0  0  0  0  0
  1  2  1  0
  2  3  2  0
  3  4  1  0
  3  5  1  0
  5  6  2  3
  6  7  1  0
  7  8  1  0
  8  9  2  0
  8 10  2  0
  8 11  1  0
 11 12  2  0
 12 13  1  0
 13 14  2  0
 14 15  1  0
 15 16  2  0
  5 17  1  0
 17 18  2  0
 18 19  1  0
 19 20  2  0
 19  2  1  0
 16 11  1  0
  1 21  1  0
  1 22  1  0
  1 23  1  0
  4 24  1  0
  4 25  1  0
  4 26  1  0
 12 27  1  0
 13 28  1  0
 14 29  1  0
 15 30  1  0
 16 31  1  0
 17 32  1  0
 18 33  1  0
M  END
