
     RDKit          3D

 36 38  0  0  0  0  0  0  0  0999 V2000
   -1.8434   -1.3251    1.8230 C   0  0  0  0  0  0  0  0  0  0  0  0
   -1.3670   -0.4149    0.7176 C   0  0  0  0  0  0  0  0  0  0  0  0
   -2.1803    0.3624   -0.0325 C   0  0  0  0  0  0  0  0  0  0  0  0
   -3.5636    0.3291    0.0349 N   0  0  0  0  0  0  0  0  0  0  0  0
   -4.3590    1.4393    0.0820 C   0  0  0  0  0  0  0  0  0  0  0  0
   -5.7516    0.9847   -0.0040 C   0  0  0  0  0  0  0  0  0  0  0  0
   -5.7417   -0.3449   -0.0796 C   0  0  0  0  0  0  0  0  0  0  0  0
   -4.0573    2.6066    0.2606 O   0  0  0  0  0  0  0  0  0  0  0  0
   -4.3414   -0.7860   -0.0742 C   0  0  0  0  0  0  0  0  0  0  0  0
   -4.0244   -1.9574   -0.1906 O   0  0  0  0  0  0  0  0  0  0  0  0
   -1.6172    1.2962   -1.0620 C   0  0  0  0  0  0  0  0  0  0  0  0
   -0.2549    1.5314   -1.0278 O   0  0  0  0  0  0  0  0  0  0  0  0
    0.5960    0.6761   -0.3123 C   0  0  0  0  0  0  0  0  0  0  0  0
    1.9709    0.8667   -0.5150 C   0  0  0  0  0  0  0  0  0  0  0  0
    2.9254    0.0452    0.1005 C   0  0  0  0  0  0  0  0  0  0  0  0
    4.3005    0.2299   -0.0758 N   0  0  0  0  0  0  0  0  0  0  0  0
    5.2093   -0.8671    0.2555 C   0  0  0  0  0  0  0  0  0  0  0  0
    4.7715    1.1472   -1.1129 C   0  0  0  0  0  0  0  0  0  0  0  0
    2.4084   -0.9554    0.9409 C   0  0  0  0  0  0  0  0  0  0  0  0
    1.0277   -1.1367    1.1451 C   0  0  0  0  0  0  0  0  0  0  0  0
    0.0920   -0.3114    0.5203 C   0  0  0  0  0  0  0  0  0  0  0  0
   -2.3208    1.8062   -1.9303 O   0  0  0  0  0  0  0  0  0  0  0  0
   -1.2711   -1.1567    2.7425 H   0  0  0  0  0  0  0  0  0  0  0  0
   -1.7392   -2.3750    1.5302 H   0  0  0  0  0  0  0  0  0  0  0  0
   -2.8860   -1.1513    2.1028 H   0  0  0  0  0  0  0  0  0  0  0  0
   -6.5938    1.6536    0.0086 H   0  0  0  0  0  0  0  0  0  0  0  0
   -6.5758   -1.0199   -0.1556 H   0  0  0  0  0  0  0  0  0  0  0  0
    2.2652    1.6731   -1.1790 H   0  0  0  0  0  0  0  0  0  0  0  0
    5.1840   -1.0924    1.3269 H   0  0  0  0  0  0  0  0  0  0  0  0
    6.2491   -0.6063    0.0279 H   0  0  0  0  0  0  0  0  0  0  0  0
    4.9634   -1.7686   -0.3167 H   0  0  0  0  0  0  0  0  0  0  0  0
    4.4014    2.1638   -0.9417 H   0  0  0  0  0  0  0  0  0  0  0  0
    5.8648    1.2220   -1.1085 H   0  0  0  0  0  0  0  0  0  0  0  0
    4.4660    0.8057   -2.1080 H   0  0  0  0  0  0  0  0  0  0  0  0
    3.0716   -1.6280    1.4776 H   0  0  0  0  0  0  0  0  0  0  0  0
    0.7211   -1.9421    1.8076 H   0  0  0  0  0  0  0  0  0  0  0  0
  1  2  1  0
  2  3  2  0
  3  4  1  0
  4  5  1  0
  5  6  1  0
  6  7  2  0
  5  8  2  0
  4  9  1  0
  9 10  2  0
  3 11  1  0
 11 12  1  0
 12 13  1  0
 13 14  2  0
 14 15  1  0
 15 16  1  0
 16 17  1  0
 16 18  1  0
 15 19  2  0
 19 20  1  0
 20 21  2  0
 11 22  2  0
 21  2  1  0
  9  7  1  0
 21 13  1  0
  1 23  1  0
  1 24  1  0
  1 25  1  0
  6 26  1  0
  7 27  1  0
 14 28  1  0
 17 29  1  0
 17 30  1  0
 17 31  1  0
 18 32  1  0
 18 33  1  0
 18 34  1  0
 19 35  1  0
 20 36  1  0
M  END
