
     RDKit          3D

 40 44  0  0  0  0  0  0  0  0999 V2000
   -7.1422    0.5106   -0.2310 C   0  0  0  0  0  0  0  0  0  0  0  0
   -5.6686    0.2414   -0.2066 C   0  0  0  0  0  0  0  0  0  0  0  0
   -4.7672    1.1712   -0.7696 C   0  0  0  0  0  0  0  0  0  0  0  0
   -3.3628    0.9947   -0.7886 C   0  0  0  0  0  0  0  0  0  0  0  0
   -2.6983   -0.1326   -0.2492 C   0  0  0  0  0  0  0  0  0  0  0  0
   -1.2388   -0.2819   -0.2832 C   0  0  0  0  0  0  0  0  0  0  0  0
   -0.4069    0.7420    0.2064 C   0  0  0  0  0  0  0  0  0  0  0  0
    0.9698    0.5811    0.1444 C   0  0  0  0  0  0  0  0  0  0  0  0
    2.0457    1.5394    0.6140 C   0  0  0  0  0  0  0  0  0  0  0  0
   -0.6358   -1.4424   -0.8263 C   0  0  0  0  0  0  0  0  0  0  0  0
    0.7559   -1.5985   -0.8860 C   0  0  0  0  0  0  0  0  0  0  0  0
    1.5536   -0.5808   -0.3986 C   0  0  0  0  0  0  0  0  0  0  0  0
    2.9939   -0.4570   -0.3245 C   0  0  0  0  0  0  0  0  0  0  0  0
    3.9986   -1.3228   -0.7179 C   0  0  0  0  0  0  0  0  0  0  0  0
    5.3288   -0.9348   -0.5187 C   0  0  0  0  0  0  0  0  0  0  0  0
    3.3121    0.7840    0.2664 C   0  0  0  0  0  0  0  0  0  0  0  0
    4.6258    1.1770    0.4682 C   0  0  0  0  0  0  0  0  0  0  0  0
    5.6505    0.3121    0.0595 C   0  0  0  0  0  0  0  0  0  0  0  0
    7.0870    0.6826    0.2905 C   0  0  0  0  0  0  0  0  0  0  0  0
   -3.5560   -1.1120    0.3374 C   0  0  0  0  0  0  0  0  0  0  0  0
   -3.1846   -2.2648    0.9250 N   0  0  0  0  0  0  0  0  0  0  0  0
   -4.5651   -3.0175    1.4398 S   0  0  0  0  0  0  0  0  0  0  0  0
   -5.7138   -1.9315    0.9467 N   0  0  0  0  0  0  0  0  0  0  0  0
   -5.0615   -0.9160    0.3560 C   0  0  0  0  0  0  0  0  0  0  0  0
   -7.7108   -0.2967    0.2400 H   0  0  0  0  0  0  0  0  0  0  0  0
   -7.4888    0.6083   -1.2648 H   0  0  0  0  0  0  0  0  0  0  0  0
   -7.3633    1.4375    0.3077 H   0  0  0  0  0  0  0  0  0  0  0  0
   -5.1689    2.0806   -1.2209 H   0  0  0  0  0  0  0  0  0  0  0  0
   -2.7642    1.7756   -1.2618 H   0  0  0  0  0  0  0  0  0  0  0  0
   -0.8278    1.6443    0.6405 H   0  0  0  0  0  0  0  0  0  0  0  0
    1.9753    1.7008    1.6936 H   0  0  0  0  0  0  0  0  0  0  0  0
    1.9927    2.4815    0.0607 H   0  0  0  0  0  0  0  0  0  0  0  0
   -1.2618   -2.2458   -1.2126 H   0  0  0  0  0  0  0  0  0  0  0  0
    1.1855   -2.5019   -1.3049 H   0  0  0  0  0  0  0  0  0  0  0  0
    3.7708   -2.2833   -1.1671 H   0  0  0  0  0  0  0  0  0  0  0  0
    6.1245   -1.6141   -0.8183 H   0  0  0  0  0  0  0  0  0  0  0  0
    4.8508    2.1323    0.9321 H   0  0  0  0  0  0  0  0  0  0  0  0
    7.4168    0.3103    1.2653 H   0  0  0  0  0  0  0  0  0  0  0  0
    7.2199    1.7693    0.2632 H   0  0  0  0  0  0  0  0  0  0  0  0
    7.7292    0.2577   -0.4880 H   0  0  0  0  0  0  0  0  0  0  0  0
  1  2  1  0
  2  3  2  0
  3  4  1  0
  4  5  2  0
  5  6  1  0
  6  7  2  0
  7  8  1  0
  8  9  1  0
  6 10  1  0
 10 11  2  0
 11 12  1  0
 12 13  1  0
 13 14  2  0
 14 15  1  0
 13 16  1  0
 16 17  2  0
 17 18  1  0
 18 19  1  0
  5 20  1  0
 20 21  2  0
 21 22  1  0
 22 23  1  0
 23 24  2  0
 24  2  1  0
 12  8  2  0
 16  9  1  0
 18 15  2  0
 24 20  1  0
  1 25  1  0
  1 26  1  0
  1 27  1  0
  3 28  1  0
  4 29  1  0
  7 30  1  0
  9 31  1  0
  9 32  1  0
 10 33  1  0
 11 34  1  0
 14 35  1  0
 15 36  1  0
 17 37  1  0
 19 38  1  0
 19 39  1  0
 19 40  1  0
M  END
