
     RDKit          3D

 30 31  0  0  0  0  0  0  0  0999 V2000
   -5.1376    0.1063    0.4653 C   0  0  0  0  0  0  0  0  0  0  0  0
   -3.6420    0.0915    0.3490 C   0  0  0  0  0  0  0  0  0  0  0  0
   -2.8693   -0.6649    1.2365 C   0  0  0  0  0  0  0  0  0  0  0  0
   -1.4780   -0.7032    1.1095 C   0  0  0  0  0  0  0  0  0  0  0  0
   -0.8321    0.0039    0.0859 C   0  0  0  0  0  0  0  0  0  0  0  0
    0.6276   -0.0476   -0.0567 C   0  0  0  0  0  0  0  0  0  0  0  0
    1.4350    0.7099    0.8082 C   0  0  0  0  0  0  0  0  0  0  0  0
    2.8260    0.6859    0.6846 C   0  0  0  0  0  0  0  0  0  0  0  0
    3.6042    1.4281    1.5284 O   0  0  0  0  0  0  0  0  0  0  0  0
    1.2641   -0.8266   -1.0369 C   0  0  0  0  0  0  0  0  0  0  0  0
    2.6543   -0.8466   -1.1590 C   0  0  0  0  0  0  0  0  0  0  0  0
    3.4526   -0.0876   -0.2957 C   0  0  0  0  0  0  0  0  0  0  0  0
    4.9473   -0.1102   -0.4253 C   0  0  0  0  0  0  0  0  0  0  0  0
    0.5717   -1.6137   -1.9190 O   0  0  0  0  0  0  0  0  0  0  0  0
   -1.6130    0.7500   -0.8084 C   0  0  0  0  0  0  0  0  0  0  0  0
   -3.0042    0.7892   -0.6821 C   0  0  0  0  0  0  0  0  0  0  0  0
   -5.5666   -0.7102   -0.1236 H   0  0  0  0  0  0  0  0  0  0  0  0
   -5.5479    1.0559    0.1060 H   0  0  0  0  0  0  0  0  0  0  0  0
   -5.4493   -0.0075    1.5089 H   0  0  0  0  0  0  0  0  0  0  0  0
   -3.3452   -1.2306    2.0348 H   0  0  0  0  0  0  0  0  0  0  0  0
   -0.8976   -1.2985    1.8122 H   0  0  0  0  0  0  0  0  0  0  0  0
    0.9630    1.3219    1.5724 H   0  0  0  0  0  0  0  0  0  0  0  0
    3.0283    1.9159    2.1392 H   0  0  0  0  0  0  0  0  0  0  0  0
    3.1077   -1.4627   -1.9316 H   0  0  0  0  0  0  0  0  0  0  0  0
    5.3252    0.8957   -0.6344 H   0  0  0  0  0  0  0  0  0  0  0  0
    5.2695   -0.7629   -1.2435 H   0  0  0  0  0  0  0  0  0  0  0  0
    5.4023   -0.4845    0.4974 H   0  0  0  0  0  0  0  0  0  0  0  0
   -0.3731   -1.5765   -1.6901 H   0  0  0  0  0  0  0  0  0  0  0  0
   -1.1373    1.3078   -1.6136 H   0  0  0  0  0  0  0  0  0  0  0  0
   -3.5857    1.3716   -1.3937 H   0  0  0  0  0  0  0  0  0  0  0  0
  1  2  1  0
  2  3  2  0
  3  4  1  0
  4  5  2  0
  5  6  1  0
  6  7  2  0
  7  8  1  0
  8  9  1  0
  6 10  1  0
 10 11  2  0
 11 12  1  0
 12 13  1  0
 10 14  1  0
  5 15  1  0
 15 16  2  0
 16  2  1  0
 12  8  2  0
  1 17  1  0
  1 18  1  0
  1 19  1  0
  3 20  1  0
  4 21  1  0
  7 22  1  0
  9 23  1  0
 11 24  1  0
 13 25  1  0
 13 26  1  0
 13 27  1  0
 14 28  1  0
 15 29  1  0
 16 30  1  0
M  END
