
     RDKit          3D

 39 42  0  0  0  0  0  0  0  0999 V2000
    7.2167    0.0711   -0.1509 C   0  0  0  0  0  0  0  0  0  0  0  0
    5.7183    0.1156   -0.1971 C   0  0  0  0  0  0  0  0  0  0  0  0
    5.0210   -0.5108   -1.2340 C   0  0  0  0  0  0  0  0  0  0  0  0
    3.6225   -0.4964   -1.2587 C   0  0  0  0  0  0  0  0  0  0  0  0
    2.8856    0.1336   -0.2436 C   0  0  0  0  0  0  0  0  0  0  0  0
    1.4137    0.1469   -0.2702 C   0  0  0  0  0  0  0  0  0  0  0  0
    0.6723   -0.3080    0.8285 C   0  0  0  0  0  0  0  0  0  0  0  0
   -0.7083   -0.2660    0.7374 C   0  0  0  0  0  0  0  0  0  0  0  0
   -1.8355   -0.7807    1.9859 S   0  0  0  0  0  6  0  0  0  0  0  0
   -1.7425    0.1404    3.0977 O   0  0  0  0  0  0  0  0  0  0  0  0
   -1.7575   -2.2196    2.1141 O   0  0  0  0  0  0  0  0  0  0  0  0
    0.7149    0.6224   -1.4082 C   0  0  0  0  0  0  0  0  0  0  0  0
   -0.6894    0.6525   -1.4685 C   0  0  0  0  0  0  0  0  0  0  0  0
   -1.4196    0.2023   -0.3805 C   0  0  0  0  0  0  0  0  0  0  0  0
   -2.8729    0.1386   -0.2099 C   0  0  0  0  0  0  0  0  0  0  0  0
   -3.8708    0.5071   -1.0998 C   0  0  0  0  0  0  0  0  0  0  0  0
   -5.2148    0.3550   -0.7213 C   0  0  0  0  0  0  0  0  0  0  0  0
   -3.2628   -0.3775    1.0390 C   0  0  0  0  0  0  0  0  0  0  0  0
   -4.5755   -0.5412    1.4439 C   0  0  0  0  0  0  0  0  0  0  0  0
   -5.5745   -0.1542    0.5461 C   0  0  0  0  0  0  0  0  0  0  0  0
   -7.0223   -0.3334    0.9015 C   0  0  0  0  0  0  0  0  0  0  0  0
    3.5966    0.7455    0.8007 C   0  0  0  0  0  0  0  0  0  0  0  0
    4.9950    0.7334    0.8272 C   0  0  0  0  0  0  0  0  0  0  0  0
    7.5481   -0.8193    0.3920 H   0  0  0  0  0  0  0  0  0  0  0  0
    7.6187    0.9597    0.3469 H   0  0  0  0  0  0  0  0  0  0  0  0
    7.6380    0.0470   -1.1615 H   0  0  0  0  0  0  0  0  0  0  0  0
    5.5604   -1.0185   -2.0305 H   0  0  0  0  0  0  0  0  0  0  0  0
    3.1093   -0.9995   -2.0758 H   0  0  0  0  0  0  0  0  0  0  0  0
    1.1544   -0.6926    1.7227 H   0  0  0  0  0  0  0  0  0  0  0  0
    1.2779    0.9914   -2.2657 H   0  0  0  0  0  0  0  0  0  0  0  0
   -1.1770    1.0305   -2.3621 H   0  0  0  0  0  0  0  0  0  0  0  0
   -3.6349    0.9066   -2.0816 H   0  0  0  0  0  0  0  0  0  0  0  0
   -5.9935    0.6395   -1.4281 H   0  0  0  0  0  0  0  0  0  0  0  0
   -4.8093   -0.9535    2.4205 H   0  0  0  0  0  0  0  0  0  0  0  0
   -7.6361    0.4456    0.4375 H   0  0  0  0  0  0  0  0  0  0  0  0
   -7.1711   -0.2625    1.9841 H   0  0  0  0  0  0  0  0  0  0  0  0
   -7.3723   -1.3123    0.5598 H   0  0  0  0  0  0  0  0  0  0  0  0
    3.0636    1.2483    1.6056 H   0  0  0  0  0  0  0  0  0  0  0  0
    5.5136    1.2130    1.6544 H   0  0  0  0  0  0  0  0  0  0  0  0
  1  2  1  0
  2  3  2  0
  3  4  1  0
  4  5  2  0
  5  6  1  0
  6  7  2  0
  7  8  1  0
  8  9  1  0
  9 10  2  0
  9 11  2  0
  6 12  1  0
 12 13  2  0
 13 14  1  0
 14 15  1  0
 15 16  2  0
 16 17  1  0
 15 18  1  0
 18 19  2  0
 19 20  1  0
 20 21  1  0
  5 22  1  0
 22 23  2  0
 23  2  1  0
 14  8  2  0
 18  9  1  0
 20 17  2  0
  1 24  1  0
  1 25  1  0
  1 26  1  0
  3 27  1  0
  4 28  1  0
  7 29  1  0
 12 30  1  0
 13 31  1  0
 16 32  1  0
 17 33  1  0
 19 34  1  0
 21 35  1  0
 21 36  1  0
 21 37  1  0
 22 38  1  0
 23 39  1  0
M  END
