
     RDKit          3D

 38 42  0  0  0  0  0  0  0  0999 V2000
   -7.1065   -0.5008   -0.3723 C   0  0  0  0  0  0  0  0  0  0  0  0
   -5.6196   -0.3228   -0.3280 C   0  0  0  0  0  0  0  0  0  0  0  0
   -4.9336   -0.3790    0.9053 C   0  0  0  0  0  0  0  0  0  0  0  0
   -3.5328   -0.2219    1.0359 C   0  0  0  0  0  0  0  0  0  0  0  0
   -2.6569    0.0070   -0.0519 C   0  0  0  0  0  0  0  0  0  0  0  0
   -1.2084    0.1676    0.1171 C   0  0  0  0  0  0  0  0  0  0  0  0
   -0.3009   -0.6269   -0.6036 C   0  0  0  0  0  0  0  0  0  0  0  0
    1.0891   -0.4687   -0.4147 C   0  0  0  0  0  0  0  0  0  0  0  0
    2.3366   -1.3449   -1.2009 S   0  0  0  0  0  0  0  0  0  0  0  0
   -0.6958    1.1049    1.0180 C   0  0  0  0  0  0  0  0  0  0  0  0
    0.6842    1.2609    1.2035 C   0  0  0  0  0  0  0  0  0  0  0  0
    1.6070    0.4653    0.4802 C   0  0  0  0  0  0  0  0  0  0  0  0
    3.0582    0.4472    0.5037 C   0  0  0  0  0  0  0  0  0  0  0  0
    3.9770    1.2185    1.2610 C   0  0  0  0  0  0  0  0  0  0  0  0
    5.3568    1.0313    1.1222 C   0  0  0  0  0  0  0  0  0  0  0  0
    3.5807   -0.5010   -0.3750 C   0  0  0  0  0  0  0  0  0  0  0  0
    4.9705   -0.6949   -0.5190 C   0  0  0  0  0  0  0  0  0  0  0  0
    5.8592    0.0898    0.2284 C   0  0  0  0  0  0  0  0  0  0  0  0
    7.3393   -0.1286    0.1074 C   0  0  0  0  0  0  0  0  0  0  0  0
   -3.2903    0.0761   -1.3296 C   0  0  0  0  0  0  0  0  0  0  0  0
   -2.6935    0.2935   -2.5163 N   0  0  0  0  0  0  0  0  0  0  0  0
   -3.8807    0.2822   -3.6689 S   0  0  0  0  0  0  0  0  0  0  0  0
   -5.2187    0.0027   -2.7339 N   0  0  0  0  0  0  0  0  0  0  0  0
   -4.7930   -0.0919   -1.4629 C   0  0  0  0  0  0  0  0  0  0  0  0
   -7.5952    0.2745    0.2264 H   0  0  0  0  0  0  0  0  0  0  0  0
   -7.4939   -0.4322   -1.3931 H   0  0  0  0  0  0  0  0  0  0  0  0
   -7.3789   -1.4832    0.0263 H   0  0  0  0  0  0  0  0  0  0  0  0
   -5.5099   -0.5565    1.8155 H   0  0  0  0  0  0  0  0  0  0  0  0
   -3.1101   -0.2961    2.0398 H   0  0  0  0  0  0  0  0  0  0  0  0
   -0.6619   -1.3694   -1.3123 H   0  0  0  0  0  0  0  0  0  0  0  0
   -1.3690    1.7449    1.5859 H   0  0  0  0  0  0  0  0  0  0  0  0
    1.0451    2.0054    1.9087 H   0  0  0  0  0  0  0  0  0  0  0  0
    3.6105    1.9647    1.9612 H   0  0  0  0  0  0  0  0  0  0  0  0
    6.0338    1.6352    1.7230 H   0  0  0  0  0  0  0  0  0  0  0  0
    5.3437   -1.4478   -1.2090 H   0  0  0  0  0  0  0  0  0  0  0  0
    7.6644   -0.8910    0.8221 H   0  0  0  0  0  0  0  0  0  0  0  0
    7.6046   -0.4545   -0.9039 H   0  0  0  0  0  0  0  0  0  0  0  0
    7.8887    0.7982    0.3037 H   0  0  0  0  0  0  0  0  0  0  0  0
  1  2  1  0
  2  3  2  0
  3  4  1  0
  4  5  2  0
  5  6  1  0
  6  7  2  0
  7  8  1  0
  8  9  1  0
  6 10  1  0
 10 11  2  0
 11 12  1  0
 12 13  1  0
 13 14  1  0
 14 15  2  0
 13 16  2  0
 16 17  1  0
 17 18  2  0
 18 19  1  0
  5 20  1  0
 20 21  2  0
 21 22  1  0
 22 23  1  0
 23 24  2  0
 24  2  1  0
 12  8  2  0
 16  9  1  0
 18 15  1  0
 24 20  1  0
  1 25  1  0
  1 26  1  0
  1 27  1  0
  3 28  1  0
  4 29  1  0
  7 30  1  0
 10 31  1  0
 11 32  1  0
 14 33  1  0
 15 34  1  0
 17 35  1  0
 19 36  1  0
 19 37  1  0
 19 38  1  0
M  END
