
     RDKit          3D

 38 43  0  0  0  0  0  0  0  0999 V2000
   -1.6294    0.7984   -1.1535 Si  0  0  0  0  0  4  0  0  0  0  0  0
   -2.5176   -0.4872   -0.1012 C   0  0  0  0  0  0  0  0  0  0  0  0
   -1.6749   -1.2486    0.6249 C   0  0  0  0  0  0  0  0  0  0  0  0
   -0.2554   -0.9007    0.4424 C   0  0  0  0  0  0  0  0  0  0  0  0
    0.8060   -1.5299    1.0794 C   0  0  0  0  0  0  0  0  0  0  0  0
    2.1252   -1.1099    0.8269 C   0  0  0  0  0  0  0  0  0  0  0  0
    3.1923   -1.7431    1.4677 C   0  0  0  0  0  0  0  0  0  0  0  0
    4.5006   -1.3364    1.2259 C   0  0  0  0  0  0  0  0  0  0  0  0
    4.7650   -0.2868    0.3373 C   0  0  0  0  0  0  0  0  0  0  0  0
    6.0840    0.1216    0.0951 C   0  0  0  0  0  0  0  0  0  0  0  0
    6.3393    1.1620   -0.7862 C   0  0  0  0  0  0  0  0  0  0  0  0
    5.2604    1.7620   -1.3987 C   0  0  0  0  0  0  0  0  0  0  0  0
    3.9776    1.3951   -1.1891 N   0  0  0  0  0  0  0  0  0  0  0  0
    3.7116    0.3792   -0.3306 C   0  0  0  0  0  0  0  0  0  0  0  0
    2.3870   -0.0407   -0.0794 C   0  0  0  0  0  0  0  0  0  0  0  0
    1.2904    0.5823   -0.7151 C   0  0  0  0  0  0  0  0  0  0  0  0
   -0.0090    0.1555   -0.4553 C   0  0  0  0  0  0  0  0  0  0  0  0
   -3.9234   -0.6305   -0.1072 C   0  0  0  0  0  0  0  0  0  0  0  0
   -4.6652   -2.1381   -0.5581 S   0  0  0  0  0  0  0  0  0  0  0  0
   -6.2667   -1.5430   -0.3552 C   0  0  0  0  0  0  0  0  0  0  0  0
   -6.2415   -0.2418    0.0515 C   0  0  0  0  0  0  0  0  0  0  0  0
   -7.5816    0.8991    0.4323 S   0  0  0  0  0  0  0  0  0  0  0  0
   -6.2983    2.0452    0.7915 C   0  0  0  0  0  0  0  0  0  0  0  0
   -4.9880    1.5806    0.6262 C   0  0  0  0  0  0  0  0  0  0  0  0
   -4.9361    0.2314    0.1794 C   0  0  0  0  0  0  0  0  0  0  0  0
   -1.9228    2.1897   -0.7168 H   0  0  0  0  0  0  0  0  0  0  0  0
   -1.7642    0.5484   -2.6120 H   0  0  0  0  0  0  0  0  0  0  0  0
   -1.9728   -2.0468    1.2923 H   0  0  0  0  0  0  0  0  0  0  0  0
    0.6097   -2.3456    1.7707 H   0  0  0  0  0  0  0  0  0  0  0  0
    3.0161   -2.5615    2.1628 H   0  0  0  0  0  0  0  0  0  0  0  0
    5.3132   -1.8470    1.7381 H   0  0  0  0  0  0  0  0  0  0  0  0
    6.9177   -0.3689    0.5916 H   0  0  0  0  0  0  0  0  0  0  0  0
    7.3508    1.4937   -0.9884 H   0  0  0  0  0  0  0  0  0  0  0  0
    5.3970    2.5815   -2.0985 H   0  0  0  0  0  0  0  0  0  0  0  0
    1.4666    1.4006   -1.4123 H   0  0  0  0  0  0  0  0  0  0  0  0
   -7.1399   -2.1549   -0.5336 H   0  0  0  0  0  0  0  0  0  0  0  0
   -6.5975    3.0312    1.1201 H   0  0  0  0  0  0  0  0  0  0  0  0
   -4.1263    2.2038    0.8318 H   0  0  0  0  0  0  0  0  0  0  0  0
  1  2  1  0
  2  3  2  0
  3  4  1  0
  4  5  2  0
  5  6  1  0
  6  7  2  0
  7  8  1  0
  8  9  2  0
  9 10  1  0
 10 11  2  0
 11 12  1  0
 12 13  2  0
 13 14  1  0
 14 15  2  0
 15 16  1  0
 16 17  2  0
  2 18  1  0
 18 19  1  0
 19 20  1  0
 20 21  2  0
 21 22  1  0
 22 23  1  0
 23 24  2  0
 24 25  1  0
 17  1  1  0
 25 18  2  0
 17  4  1  0
 25 21  1  0
 15  6  1  0
 14  9  1  0
  1 26  1  0
  1 27  1  0
  3 28  1  0
  5 29  1  0
  7 30  1  0
  8 31  1  0
 10 32  1  0
 11 33  1  0
 12 34  1  0
 16 35  1  0
 20 36  1  0
 23 37  1  0
 24 38  1  0
M  END
