
     RDKit          3D

 40 46  0  0  0  0  0  0  0  0999 V2000
   -5.8818    2.1576    0.6248 Si  0  0  0  0  0  4  0  0  0  0  0  0
   -6.5451    0.4611    0.2177 C   0  0  0  0  0  0  0  0  0  0  0  0
   -5.5383   -0.4112    0.0262 C   0  0  0  0  0  0  0  0  0  0  0  0
   -5.7099   -1.7992   -0.3463 C   0  0  0  0  0  0  0  0  0  0  0  0
   -4.6146   -2.5541   -0.5423 C   0  0  0  0  0  0  0  0  0  0  0  0
   -3.2653   -2.0216   -0.3695 C   0  0  0  0  0  0  0  0  0  0  0  0
   -3.0054   -0.7408   -0.0047 C   0  0  0  0  0  0  0  0  0  0  0  0
   -1.6190   -0.3937    0.1704 C   0  0  0  0  0  0  0  0  0  0  0  0
   -1.0452    0.4210    1.1719 C   0  0  0  0  0  0  0  0  0  0  0  0
    0.3342    0.4264    0.8969 C   0  0  0  0  0  0  0  0  0  0  0  0
    1.6062    0.8463    1.2178 N   0  0  0  0  0  0  0  0  0  0  0  0
    2.5075    0.3144    0.3284 C   0  0  0  0  0  0  0  0  0  0  0  0
    1.7598   -0.4229   -0.5247 C   0  0  0  0  0  0  0  0  0  0  0  0
    2.3997   -1.0743   -1.5157 O   0  0  0  0  0  0  0  0  0  0  0  0
    3.7191   -0.7103   -1.2760 C   0  0  0  0  0  0  0  0  0  0  0  0
    4.8657   -1.0948   -2.0069 C   0  0  0  0  0  0  0  0  0  0  0  0
    6.1481   -0.6208   -1.6106 C   0  0  0  0  0  0  0  0  0  0  0  0
    6.1164    0.2116   -0.4863 C   0  0  0  0  0  0  0  0  0  0  0  0
    7.1873    0.8162    0.1261 C   0  0  0  0  0  0  0  0  0  0  0  0
    6.7594    1.5593    1.2048 O   0  0  0  0  0  0  0  0  0  0  0  0
    5.3913    1.4311    1.2883 C   0  0  0  0  0  0  0  0  0  0  0  0
    5.0060    0.6212    0.2718 C   0  0  0  0  0  0  0  0  0  0  0  0
    3.7775    0.1220   -0.1698 C   0  0  0  0  0  0  0  0  0  0  0  0
    0.4852   -0.3459   -0.1828 C   0  0  0  0  0  0  0  0  0  0  0  0
   -0.6177   -0.8929   -0.6808 O   0  0  0  0  0  0  0  0  0  0  0  0
   -4.1683    0.1436    0.1916 C   0  0  0  0  0  0  0  0  0  0  0  0
   -4.1492    1.4616    0.4828 C   0  0  0  0  0  0  0  0  0  0  0  0
   -6.1788    3.1560   -0.4300 H   0  0  0  0  0  0  0  0  0  0  0  0
   -6.2030    2.5768    2.0106 H   0  0  0  0  0  0  0  0  0  0  0  0
   -7.6030    0.2691    0.1368 H   0  0  0  0  0  0  0  0  0  0  0  0
   -6.7071   -2.2040   -0.4751 H   0  0  0  0  0  0  0  0  0  0  0  0
   -4.7055   -3.5967   -0.8314 H   0  0  0  0  0  0  0  0  0  0  0  0
   -2.4571   -2.7317   -0.5330 H   0  0  0  0  0  0  0  0  0  0  0  0
   -1.5759    0.9117    1.9746 H   0  0  0  0  0  0  0  0  0  0  0  0
    1.8400    1.4499    1.9948 H   0  0  0  0  0  0  0  0  0  0  0  0
    4.7621   -1.7497   -2.8669 H   0  0  0  0  0  0  0  0  0  0  0  0
    7.0503   -0.8925   -2.1444 H   0  0  0  0  0  0  0  0  0  0  0  0
    8.2539    0.8346   -0.0487 H   0  0  0  0  0  0  0  0  0  0  0  0
    4.9129    1.9651    2.0954 H   0  0  0  0  0  0  0  0  0  0  0  0
   -3.2922    2.1005    0.6139 H   0  0  0  0  0  0  0  0  0  0  0  0
  1  2  1  0
  2  3  2  0
  3  4  1  0
  4  5  2  0
  5  6  1  0
  6  7  2  0
  7  8  1  0
  8  9  2  0
  9 10  1  0
 10 11  1  0
 11 12  1  0
 12 13  2  0
 13 14  1  0
 14 15  1  0
 15 16  1  0
 16 17  2  0
 17 18  1  0
 18 19  2  0
 19 20  1  0
 20 21  1  0
 21 22  2  0
 22 23  1  0
 13 24  1  0
 24 25  1  0
  7 26  1  0
 26 27  2  0
 27  1  1  0
 26  3  1  0
 25  8  1  0
 24 10  2  0
 23 12  1  0
 23 15  2  0
 22 18  1  0
  1 28  1  0
  1 29  1  0
  2 30  1  0
  4 31  1  0
  5 32  1  0
  6 33  1  0
  9 34  1  0
 11 35  1  0
 16 36  1  0
 17 37  1  0
 19 38  1  0
 21 39  1  0
 27 40  1  0
M  END
