
     RDKit          3D

 39 42  0  0  0  0  0  0  0  0999 V2000
    7.0667   -0.1169    0.6106 C   0  0  0  0  0  0  0  0  0  0  0  0
    5.5912   -0.2711    0.3789 C   0  0  0  0  0  0  0  0  0  0  0  0
    5.1158   -1.2357   -0.5368 C   0  0  0  0  0  0  0  0  0  0  0  0
    3.7449   -1.3870   -0.8020 C   0  0  0  0  0  0  0  0  0  0  0  0
    2.8370   -0.5615   -0.1556 C   0  0  0  0  0  0  0  0  0  0  0  0
    3.3421    0.3978    0.7404 C   0  0  0  0  0  0  0  0  0  0  0  0
    4.6845    0.5744    1.0244 C   0  0  0  0  0  0  0  0  0  0  0  0
    1.3773   -0.5319   -0.2711 C   0  0  0  0  0  0  0  0  0  0  0  0
    0.5483   -1.3262   -1.0454 C   0  0  0  0  0  0  0  0  0  0  0  0
   -0.8422   -1.1201   -0.9924 C   0  0  0  0  0  0  0  0  0  0  0  0
   -1.4343   -0.1253   -0.1719 C   0  0  0  0  0  0  0  0  0  0  0  0
   -2.8988    0.0575   -0.1395 C   0  0  0  0  0  0  0  0  0  0  0  0
   -3.4881    1.3253   -0.2628 C   0  0  0  0  0  0  0  0  0  0  0  0
   -2.7160    2.4115   -0.4260 F   0  0  0  0  0  0  0  0  0  0  0  0
   -4.8750    1.4967   -0.2306 C   0  0  0  0  0  0  0  0  0  0  0  0
   -5.3839    2.7323   -0.3443 F   0  0  0  0  0  0  0  0  0  0  0  0
   -3.7752   -1.0267    0.0222 C   0  0  0  0  0  0  0  0  0  0  0  0
   -3.2874   -2.2697    0.1650 F   0  0  0  0  0  0  0  0  0  0  0  0
   -5.1617   -0.8518    0.0538 C   0  0  0  0  0  0  0  0  0  0  0  0
   -5.9516   -1.9225    0.2221 F   0  0  0  0  0  0  0  0  0  0  0  0
   -5.7348    0.4103   -0.0852 C   0  0  0  0  0  0  0  0  0  0  0  0
   -7.2167    0.5998   -0.0159 C   0  0  0  0  0  0  0  0  0  0  0  0
   -0.5884    0.6772    0.6082 C   0  0  0  0  0  0  0  0  0  0  0  0
    0.7760    0.4499    0.5329 C   0  0  0  0  0  0  0  0  0  0  0  0
    2.0140    1.3265    1.4254 S   0  0  0  0  0  6  0  0  0  0  0  0
    1.8896    0.9935    2.8277 O   0  0  0  0  0  0  0  0  0  0  0  0
    2.0815    2.6776    0.9134 O   0  0  0  0  0  0  0  0  0  0  0  0
    7.5763   -1.0827    0.5294 H   0  0  0  0  0  0  0  0  0  0  0  0
    7.2665    0.2724    1.6144 H   0  0  0  0  0  0  0  0  0  0  0  0
    7.4907    0.5718   -0.1266 H   0  0  0  0  0  0  0  0  0  0  0  0
    5.8240   -1.8825   -1.0537 H   0  0  0  0  0  0  0  0  0  0  0  0
    3.4188   -2.1437   -1.5094 H   0  0  0  0  0  0  0  0  0  0  0  0
    5.0098    1.3405    1.7215 H   0  0  0  0  0  0  0  0  0  0  0  0
    0.9481   -2.1042   -1.6892 H   0  0  0  0  0  0  0  0  0  0  0  0
   -1.4745   -1.7569   -1.6121 H   0  0  0  0  0  0  0  0  0  0  0  0
   -7.5256    0.7650    1.0209 H   0  0  0  0  0  0  0  0  0  0  0  0
   -7.7438   -0.2772   -0.4059 H   0  0  0  0  0  0  0  0  0  0  0  0
   -7.5318    1.4576   -0.6193 H   0  0  0  0  0  0  0  0  0  0  0  0
   -0.9735    1.4561    1.2608 H   0  0  0  0  0  0  0  0  0  0  0  0
  1  2  1  0
  2  3  2  0
  3  4  1  0
  4  5  2  0
  5  6  1  0
  6  7  2  0
  5  8  1  0
  8  9  2  0
  9 10  1  0
 10 11  2  0
 11 12  1  0
 12 13  2  0
 13 14  1  0
 13 15  1  0
 15 16  1  0
 12 17  1  0
 17 18  1  0
 17 19  2  0
 19 20  1  0
 19 21  1  0
 21 22  1  0
 11 23  1  0
 23 24  2  0
 24 25  1  0
 25 26  2  0
 25 27  2  0
  7  2  1  0
 25  6  1  0
 24  8  1  0
 21 15  2  0
  1 28  1  0
  1 29  1  0
  1 30  1  0
  3 31  1  0
  4 32  1  0
  7 33  1  0
  9 34  1  0
 10 35  1  0
 22 36  1  0
 22 37  1  0
 22 38  1  0
 23 39  1  0
M  END
