
     RDKit          3D

 50 55  0  0  0  0  0  0  0  0999 V2000
    9.2419   -0.0757   -0.1482 C   0  0  0  0  0  0  0  0  0  0  0  0
    7.7594    0.1503   -0.0737 C   0  0  0  0  0  0  0  0  0  0  0  0
    7.2519    1.4505    0.1430 C   0  0  0  0  0  0  0  0  0  0  0  0
    5.8730    1.6951    0.2485 C   0  0  0  0  0  0  0  0  0  0  0  0
    4.9890    0.6313    0.1471 C   0  0  0  0  0  0  0  0  0  0  0  0
    5.5254   -0.6532   -0.0552 C   0  0  0  0  0  0  0  0  0  0  0  0
    6.8766   -0.9297   -0.1632 C   0  0  0  0  0  0  0  0  0  0  0  0
    3.5264    0.6408    0.2268 C   0  0  0  0  0  0  0  0  0  0  0  0
    2.6711    1.7134    0.4195 C   0  0  0  0  0  0  0  0  0  0  0  0
    1.2848    1.4826    0.4660 C   0  0  0  0  0  0  0  0  0  0  0  0
    0.7272    0.1869    0.3218 C   0  0  0  0  0  0  0  0  0  0  0  0
   -0.7311   -0.0159    0.3785 C   0  0  0  0  0  0  0  0  0  0  0  0
   -1.2948   -0.9845    1.2472 C   0  0  0  0  0  0  0  0  0  0  0  0
   -2.6814   -1.2037    1.3295 C   0  0  0  0  0  0  0  0  0  0  0  0
   -1.5934    0.7443   -0.4232 C   0  0  0  0  0  0  0  0  0  0  0  0
   -2.9529    0.5045   -0.3179 C   0  0  0  0  0  0  0  0  0  0  0  0
   -4.2146    1.3387   -1.2167 S   0  0  0  0  0  6  0  0  0  0  0  0
   -4.1184    0.9552   -2.6081 O   0  0  0  0  0  0  0  0  0  0  0  0
   -4.2754    2.7080   -0.7536 O   0  0  0  0  0  0  0  0  0  0  0  0
   -3.5307   -0.4493    0.5366 C   0  0  0  0  0  0  0  0  0  0  0  0
   -4.9923   -0.4936    0.4503 C   0  0  0  0  0  0  0  0  0  0  0  0
   -5.5222    0.4301   -0.4686 C   0  0  0  0  0  0  0  0  0  0  0  0
   -6.8709    0.5839   -0.7355 C   0  0  0  0  0  0  0  0  0  0  0  0
   -7.7593   -0.2327   -0.0301 C   0  0  0  0  0  0  0  0  0  0  0  0
   -7.2569   -1.1796    0.8898 C   0  0  0  0  0  0  0  0  0  0  0  0
   -5.8802   -1.3093    1.1356 C   0  0  0  0  0  0  0  0  0  0  0  0
   -9.2355   -0.1475   -0.2909 C   0  0  0  0  0  0  0  0  0  0  0  0
    1.5955   -0.8956    0.1255 C   0  0  0  0  0  0  0  0  0  0  0  0
    2.9546   -0.6347    0.0854 C   0  0  0  0  0  0  0  0  0  0  0  0
    4.2230   -1.8325   -0.1424 S   0  0  0  0  0  6  0  0  0  0  0  0
    4.1418   -2.3367   -1.4957 O   0  0  0  0  0  0  0  0  0  0  0  0
    4.2755   -2.6712    1.0354 O   0  0  0  0  0  0  0  0  0  0  0  0
    9.7440    0.7837   -0.6049 H   0  0  0  0  0  0  0  0  0  0  0  0
    9.4738   -0.9518   -0.7629 H   0  0  0  0  0  0  0  0  0  0  0  0
    9.6470   -0.2314    0.8563 H   0  0  0  0  0  0  0  0  0  0  0  0
    7.9411    2.2899    0.2306 H   0  0  0  0  0  0  0  0  0  0  0  0
    5.5221    2.7101    0.4101 H   0  0  0  0  0  0  0  0  0  0  0  0
    7.2266   -1.9465   -0.3122 H   0  0  0  0  0  0  0  0  0  0  0  0
    3.0479    2.7251    0.5383 H   0  0  0  0  0  0  0  0  0  0  0  0
    0.6268    2.3362    0.6310 H   0  0  0  0  0  0  0  0  0  0  0  0
   -0.6417   -1.5779    1.8875 H   0  0  0  0  0  0  0  0  0  0  0  0
   -3.0630   -1.9559    2.0137 H   0  0  0  0  0  0  0  0  0  0  0  0
   -1.2208    1.4926   -1.1167 H   0  0  0  0  0  0  0  0  0  0  0  0
   -7.2148    1.3114   -1.4642 H   0  0  0  0  0  0  0  0  0  0  0  0
   -7.9483   -1.8290    1.4257 H   0  0  0  0  0  0  0  0  0  0  0  0
   -5.5338   -2.0469    1.8534 H   0  0  0  0  0  0  0  0  0  0  0  0
   -9.8047   -0.3744    0.6167 H   0  0  0  0  0  0  0  0  0  0  0  0
   -9.5191    0.8614   -0.6084 H   0  0  0  0  0  0  0  0  0  0  0  0
   -9.5180   -0.8573   -1.0744 H   0  0  0  0  0  0  0  0  0  0  0  0
    1.2278   -1.9094   -0.0034 H   0  0  0  0  0  0  0  0  0  0  0  0
  1  2  1  0
  2  3  2  0
  3  4  1  0
  4  5  2  0
  5  6  1  0
  6  7  2  0
  5  8  1  0
  8  9  2  0
  9 10  1  0
 10 11  2  0
 11 12  1  0
 12 13  2  0
 13 14  1  0
 12 15  1  0
 15 16  2  0
 16 17  1  0
 17 18  2  0
 17 19  2  0
 16 20  1  0
 20 21  1  0
 21 22  2  0
 22 23  1  0
 23 24  2  0
 24 25  1  0
 25 26  2  0
 24 27  1  0
 11 28  1  0
 28 29  2  0
 29 30  1  0
 30 31  2  0
 30 32  2  0
  7  2  1  0
 30  6  1  0
 29  8  1  0
 20 14  2  0
 22 17  1  0
 26 21  1  0
  1 33  1  0
  1 34  1  0
  1 35  1  0
  3 36  1  0
  4 37  1  0
  7 38  1  0
  9 39  1  0
 10 40  1  0
 13 41  1  0
 14 42  1  0
 15 43  1  0
 23 44  1  0
 25 45  1  0
 26 46  1  0
 27 47  1  0
 27 48  1  0
 27 49  1  0
 28 50  1  0
M  END
