
     RDKit          3D

 47 51  0  0  0  0  0  0  0  0999 V2000
   -8.8668   -1.1639    0.2340 C   0  0  0  0  0  0  0  0  0  0  0  0
   -7.4353   -0.7173    0.2817 C   0  0  0  0  0  0  0  0  0  0  0  0
   -7.0571    0.3583    1.1167 C   0  0  0  0  0  0  0  0  0  0  0  0
   -5.7198    0.7772    1.2208 C   0  0  0  0  0  0  0  0  0  0  0  0
   -4.7456    0.1097    0.4902 C   0  0  0  0  0  0  0  0  0  0  0  0
   -5.1537   -0.9582   -0.3340 C   0  0  0  0  0  0  0  0  0  0  0  0
   -6.4591   -1.4001   -0.4543 C   0  0  0  0  0  0  0  0  0  0  0  0
   -3.2980    0.3345    0.4684 C   0  0  0  0  0  0  0  0  0  0  0  0
   -2.5510    1.2768    1.1613 C   0  0  0  0  0  0  0  0  0  0  0  0
   -1.1514    1.2712    1.0252 C   0  0  0  0  0  0  0  0  0  0  0  0
   -0.4818    0.3303    0.2020 C   0  0  0  0  0  0  0  0  0  0  0  0
    0.9785    0.3046    0.1362 C   0  0  0  0  0  0  0  0  0  0  0  0
    1.7147   -0.6299    0.8657 C   0  0  0  0  0  0  0  0  0  0  0  0
    3.1056   -0.6491    0.7674 C   0  0  0  0  0  0  0  0  0  0  0  0
    1.7044    1.1828   -0.6675 C   0  0  0  0  0  0  0  0  0  0  0  0
    3.0574    1.1910   -0.7797 N   0  0  0  0  0  0  0  0  0  0  0  0
    3.7588    0.2715   -0.0637 C   0  0  0  0  0  0  0  0  0  0  0  0
    5.2342    0.2712   -0.2233 C   0  0  0  0  0  0  0  0  0  0  0  0
    5.8899    1.0748   -1.1557 C   0  0  0  0  0  0  0  0  0  0  0  0
    7.2763    0.9908   -1.2914 C   0  0  0  0  0  0  0  0  0  0  0  0
    5.9290   -0.5860    0.5795 N   0  0  0  0  0  0  0  0  0  0  0  0
    7.2722   -0.6412    0.4345 C   0  0  0  0  0  0  0  0  0  0  0  0
    7.9935    0.1160   -0.4844 C   0  0  0  0  0  0  0  0  0  0  0  0
    9.4750   -0.0328   -0.6022 C   0  0  0  0  0  0  0  0  0  0  0  0
   -1.2356   -0.6036   -0.5183 C   0  0  0  0  0  0  0  0  0  0  0  0
   -2.6102   -0.5687   -0.3653 C   0  0  0  0  0  0  0  0  0  0  0  0
   -3.7567   -1.6440   -1.1548 S   0  0  0  0  0  6  0  0  0  0  0  0
   -3.8249   -1.2825   -2.5542 O   0  0  0  0  0  0  0  0  0  0  0  0
   -3.5415   -2.9907   -0.6698 O   0  0  0  0  0  0  0  0  0  0  0  0
   -9.5481   -0.3283    0.4284 H   0  0  0  0  0  0  0  0  0  0  0  0
   -9.1179   -1.5630   -0.7572 H   0  0  0  0  0  0  0  0  0  0  0  0
   -9.0336   -1.9490    0.9845 H   0  0  0  0  0  0  0  0  0  0  0  0
   -7.8144    0.8767    1.7035 H   0  0  0  0  0  0  0  0  0  0  0  0
   -5.4692    1.6058    1.8769 H   0  0  0  0  0  0  0  0  0  0  0  0
   -6.7034   -2.2398   -1.0896 H   0  0  0  0  0  0  0  0  0  0  0  0
   -3.0225    2.0052    1.8166 H   0  0  0  0  0  0  0  0  0  0  0  0
   -0.5710    1.9994    1.5899 H   0  0  0  0  0  0  0  0  0  0  0  0
    1.2168   -1.3441    1.5115 H   0  0  0  0  0  0  0  0  0  0  0  0
    3.6740   -1.3844    1.3364 H   0  0  0  0  0  0  0  0  0  0  0  0
    1.2030    1.9287   -1.2788 H   0  0  0  0  0  0  0  0  0  0  0  0
    5.3282    1.7692   -1.7804 H   0  0  0  0  0  0  0  0  0  0  0  0
    7.7833    1.6135   -2.0356 H   0  0  0  0  0  0  0  0  0  0  0  0
    7.7679   -1.3480    1.0964 H   0  0  0  0  0  0  0  0  0  0  0  0
    9.9048    0.7115   -1.2815 H   0  0  0  0  0  0  0  0  0  0  0  0
    9.7175   -1.0262   -0.9912 H   0  0  0  0  0  0  0  0  0  0  0  0
    9.9504    0.0943    0.3748 H   0  0  0  0  0  0  0  0  0  0  0  0
   -0.7669   -1.3358   -1.1695 H   0  0  0  0  0  0  0  0  0  0  0  0
  1  2  1  0
  2  3  2  0
  3  4  1  0
  4  5  2  0
  5  6  1  0
  6  7  2  0
  5  8  1  0
  8  9  2  0
  9 10  1  0
 10 11  2  0
 11 12  1  0
 12 13  2  0
 13 14  1  0
 12 15  1  0
 15 16  2  0
 16 17  1  0
 17 18  1  0
 18 19  2  0
 19 20  1  0
 18 21  1  0
 21 22  2  0
 22 23  1  0
 23 24  1  0
 11 25  1  0
 25 26  2  0
 26 27  1  0
 27 28  2  0
 27 29  2  0
  7  2  1  0
 27  6  1  0
 26  8  1  0
 17 14  2  0
 23 20  2  0
  1 30  1  0
  1 31  1  0
  1 32  1  0
  3 33  1  0
  4 34  1  0
  7 35  1  0
  9 36  1  0
 10 37  1  0
 13 38  1  0
 14 39  1  0
 15 40  1  0
 19 41  1  0
 20 42  1  0
 22 43  1  0
 24 44  1  0
 24 45  1  0
 24 46  1  0
 25 47  1  0
M  END
