
     RDKit          3D

 39 42  0  0  0  0  0  0  0  0999 V2000
    7.0484   -0.6133   -0.0435 C   0  0  0  0  0  0  0  0  0  0  0  0
    5.5715   -0.4696   -0.2728 C   0  0  0  0  0  0  0  0  0  0  0  0
    5.0820   -0.1657   -1.5624 C   0  0  0  0  0  0  0  0  0  0  0  0
    3.7099    0.0069   -1.8078 C   0  0  0  0  0  0  0  0  0  0  0  0
    2.8152   -0.1146   -0.7551 C   0  0  0  0  0  0  0  0  0  0  0  0
    3.3344   -0.4045    0.5196 C   0  0  0  0  0  0  0  0  0  0  0  0
    4.6784   -0.5800    0.7967 C   0  0  0  0  0  0  0  0  0  0  0  0
    1.3569    0.0238   -0.7676 C   0  0  0  0  0  0  0  0  0  0  0  0
    0.5177    0.2998   -1.8358 C   0  0  0  0  0  0  0  0  0  0  0  0
   -0.8668    0.3867   -1.6119 C   0  0  0  0  0  0  0  0  0  0  0  0
   -1.4320    0.2048   -0.3260 C   0  0  0  0  0  0  0  0  0  0  0  0
   -2.8862    0.2967   -0.1291 C   0  0  0  0  0  0  0  0  0  0  0  0
   -3.6246   -0.8848    0.0624 C   0  0  0  0  0  0  0  0  0  0  0  0
   -5.0108   -0.8518    0.2516 C   0  0  0  0  0  0  0  0  0  0  0  0
   -5.8306   -2.3557    0.4744 Cl  0  0  0  0  0  0  0  0  0  0  0  0
   -3.5838    1.5175   -0.1207 C   0  0  0  0  0  0  0  0  0  0  0  0
   -2.7736    3.0331   -0.3266 Cl  0  0  0  0  0  0  0  0  0  0  0  0
   -4.9715    1.5499    0.0695 C   0  0  0  0  0  0  0  0  0  0  0  0
   -5.7022    0.3667    0.2571 C   0  0  0  0  0  0  0  0  0  0  0  0
   -7.1896    0.4383    0.4596 C   0  0  0  0  0  0  0  0  0  0  0  0
   -0.5862   -0.0778    0.7534 C   0  0  0  0  0  0  0  0  0  0  0  0
    0.7715   -0.1570    0.4978 C   0  0  0  0  0  0  0  0  0  0  0  0
    2.0218   -0.5003    1.6871 S   0  0  0  0  0  6  0  0  0  0  0  0
    1.8805   -1.8753    2.1143 O   0  0  0  0  0  0  0  0  0  0  0  0
    2.1203    0.6251    2.5904 O   0  0  0  0  0  0  0  0  0  0  0  0
    7.5388   -1.0429   -0.9233 H   0  0  0  0  0  0  0  0  0  0  0  0
    7.4906    0.3652    0.1676 H   0  0  0  0  0  0  0  0  0  0  0  0
    7.2501   -1.2821    0.7998 H   0  0  0  0  0  0  0  0  0  0  0  0
    5.7799   -0.0610   -2.3924 H   0  0  0  0  0  0  0  0  0  0  0  0
    3.3728    0.2362   -2.8143 H   0  0  0  0  0  0  0  0  0  0  0  0
    5.0152   -0.7943    1.8063 H   0  0  0  0  0  0  0  0  0  0  0  0
    0.9068    0.4506   -2.8384 H   0  0  0  0  0  0  0  0  0  0  0  0
   -1.5182    0.6046   -2.4583 H   0  0  0  0  0  0  0  0  0  0  0  0
   -3.1106   -1.8453    0.0593 H   0  0  0  0  0  0  0  0  0  0  0  0
   -5.4853    2.5097    0.0743 H   0  0  0  0  0  0  0  0  0  0  0  0
   -7.5491    1.4725    0.4304 H   0  0  0  0  0  0  0  0  0  0  0  0
   -7.4624    0.0242    1.4356 H   0  0  0  0  0  0  0  0  0  0  0  0
   -7.7096   -0.1113   -0.3315 H   0  0  0  0  0  0  0  0  0  0  0  0
   -0.9699   -0.2248    1.7588 H   0  0  0  0  0  0  0  0  0  0  0  0
  1  2  1  0
  2  3  2  0
  3  4  1  0
  4  5  2  0
  5  6  1  0
  6  7  2  0
  5  8  1  0
  8  9  2  0
  9 10  1  0
 10 11  2  0
 11 12  1  0
 12 13  2  0
 13 14  1  0
 14 15  1  0
 12 16  1  0
 16 17  1  0
 16 18  2  0
 18 19  1  0
 19 20  1  0
 11 21  1  0
 21 22  2  0
 22 23  1  0
 23 24  2  0
 23 25  2  0
  7  2  1  0
 23  6  1  0
 22  8  1  0
 19 14  2  0
  1 26  1  0
  1 27  1  0
  1 28  1  0
  3 29  1  0
  4 30  1  0
  7 31  1  0
  9 32  1  0
 10 33  1  0
 13 34  1  0
 18 35  1  0
 20 36  1  0
 20 37  1  0
 20 38  1  0
 21 39  1  0
M  END
