
     RDKit          3D

 40 44  0  0  0  0  0  0  0  0999 V2000
    7.2190   -0.0256    0.3073 C   0  0  0  0  0  0  0  0  0  0  0  0
    5.7433   -0.0797    0.0356 C   0  0  0  0  0  0  0  0  0  0  0  0
    5.2716   -0.1881   -1.2913 C   0  0  0  0  0  0  0  0  0  0  0  0
    3.8985   -0.2102   -1.5856 C   0  0  0  0  0  0  0  0  0  0  0  0
    2.9839   -0.1129   -0.5475 C   0  0  0  0  0  0  0  0  0  0  0  0
    3.4844    0.0071    0.7614 C   0  0  0  0  0  0  0  0  0  0  0  0
    4.8288    0.0328    1.0867 C   0  0  0  0  0  0  0  0  0  0  0  0
    1.5206   -0.1118   -0.6085 C   0  0  0  0  0  0  0  0  0  0  0  0
    0.6946   -0.2188   -1.7149 C   0  0  0  0  0  0  0  0  0  0  0  0
   -0.6999   -0.1992   -1.5323 C   0  0  0  0  0  0  0  0  0  0  0  0
   -1.2988   -0.0722   -0.2525 C   0  0  0  0  0  0  0  0  0  0  0  0
   -2.7609   -0.0649   -0.1082 C   0  0  0  0  0  0  0  0  0  0  0  0
   -3.4483    0.9317    0.6479 C   0  0  0  0  0  0  0  0  0  0  0  0
   -2.8933    1.9683    1.3007 N   0  0  0  0  0  0  0  0  0  0  0  0
   -4.1204    2.8197    2.0129 S   0  0  0  0  0  0  0  0  0  0  0  0
   -5.4297    1.9296    1.5275 N   0  0  0  0  0  0  0  0  0  0  0  0
   -4.9629    0.9166    0.7805 C   0  0  0  0  0  0  0  0  0  0  0  0
   -3.6113   -1.0217   -0.7024 C   0  0  0  0  0  0  0  0  0  0  0  0
   -3.0599   -2.0046   -1.4363 F   0  0  0  0  0  0  0  0  0  0  0  0
   -5.0190   -1.0280   -0.5740 C   0  0  0  0  0  0  0  0  0  0  0  0
   -5.6965   -2.0066   -1.1981 F   0  0  0  0  0  0  0  0  0  0  0  0
   -5.7576   -0.0822    0.1600 C   0  0  0  0  0  0  0  0  0  0  0  0
   -7.2488   -0.1757    0.2355 C   0  0  0  0  0  0  0  0  0  0  0  0
   -0.4562    0.0324    0.8639 C   0  0  0  0  0  0  0  0  0  0  0  0
    0.9121    0.0125    0.6509 C   0  0  0  0  0  0  0  0  0  0  0  0
    2.1472    0.1247    1.8992 S   0  0  0  0  0  6  0  0  0  0  0  0
    2.1081   -1.0839    2.6935 O   0  0  0  0  0  0  0  0  0  0  0  0
    2.1282    1.4613    2.4521 O   0  0  0  0  0  0  0  0  0  0  0  0
    7.5735    1.0076    0.2410 H   0  0  0  0  0  0  0  0  0  0  0  0
    7.7702   -0.6378   -0.4142 H   0  0  0  0  0  0  0  0  0  0  0  0
    7.4477   -0.4147    1.3051 H   0  0  0  0  0  0  0  0  0  0  0  0
    5.9845   -0.2574   -2.1123 H   0  0  0  0  0  0  0  0  0  0  0  0
    3.5756   -0.2994   -2.6185 H   0  0  0  0  0  0  0  0  0  0  0  0
    5.1497    0.1360    2.1187 H   0  0  0  0  0  0  0  0  0  0  0  0
    1.1000   -0.3194   -2.7174 H   0  0  0  0  0  0  0  0  0  0  0  0
   -1.3307   -0.2844   -2.4177 H   0  0  0  0  0  0  0  0  0  0  0  0
   -7.6746    0.6230    0.8500 H   0  0  0  0  0  0  0  0  0  0  0  0
   -7.5442   -1.1330    0.6768 H   0  0  0  0  0  0  0  0  0  0  0  0
   -7.6819   -0.0970   -0.7668 H   0  0  0  0  0  0  0  0  0  0  0  0
   -0.8466    0.1259    1.8736 H   0  0  0  0  0  0  0  0  0  0  0  0
  1  2  1  0
  2  3  2  0
  3  4  1  0
  4  5  2  0
  5  6  1  0
  6  7  2  0
  5  8  1  0
  8  9  2  0
  9 10  1  0
 10 11  2  0
 11 12  1  0
 12 13  1  0
 13 14  2  0
 14 15  1  0
 15 16  1  0
 16 17  2  0
 12 18  2  0
 18 19  1  0
 18 20  1  0
 20 21  1  0
 20 22  2  0
 22 23  1  0
 11 24  1  0
 24 25  2  0
 25 26  1  0
 26 27  2  0
 26 28  2  0
  7  2  1  0
 26  6  1  0
 25  8  1  0
 17 13  1  0
 22 17  1  0
  1 29  1  0
  1 30  1  0
  1 31  1  0
  3 32  1  0
  4 33  1  0
  7 34  1  0
  9 35  1  0
 10 36  1  0
 23 37  1  0
 23 38  1  0
 23 39  1  0
 24 40  1  0
M  END
