
     RDKit          3D

 40 44  0  0  0  0  0  0  0  0999 V2000
   -7.2232   -0.2758   -0.0959 C   0  0  0  0  0  0  0  0  0  0  0  0
   -5.7400   -0.2836    0.1368 C   0  0  0  0  0  0  0  0  0  0  0  0
   -5.2275   -0.5427    1.4273 C   0  0  0  0  0  0  0  0  0  0  0  0
   -3.8477   -0.5278    1.6887 C   0  0  0  0  0  0  0  0  0  0  0  0
   -2.9678   -0.2417    0.6555 C   0  0  0  0  0  0  0  0  0  0  0  0
   -3.5091    0.0248   -0.6149 C   0  0  0  0  0  0  0  0  0  0  0  0
   -4.8613    0.0193   -0.9072 C   0  0  0  0  0  0  0  0  0  0  0  0
   -1.5055   -0.1673    0.6874 C   0  0  0  0  0  0  0  0  0  0  0  0
   -0.6459   -0.3706    1.7538 C   0  0  0  0  0  0  0  0  0  0  0  0
    0.7401   -0.2483    1.5485 C   0  0  0  0  0  0  0  0  0  0  0  0
    1.2971    0.0731    0.2843 C   0  0  0  0  0  0  0  0  0  0  0  0
    2.7492    0.1971    0.1010 C   0  0  0  0  0  0  0  0  0  0  0  0
    3.6636   -0.8118    0.5291 C   0  0  0  0  0  0  0  0  0  0  0  0
    3.3539   -1.9741    1.1339 N   0  0  0  0  0  0  0  0  0  0  0  0
    4.7730   -2.7810    1.4061 S   0  0  0  0  0  0  0  0  0  0  0  0
    5.8642   -1.7035    0.7830 N   0  0  0  0  0  0  0  0  0  0  0  0
    5.1615   -0.6583    0.3180 C   0  0  0  0  0  0  0  0  0  0  0  0
    3.3658    1.3049   -0.5208 C   0  0  0  0  0  0  0  0  0  0  0  0
    2.5929    2.3138   -0.9574 F   0  0  0  0  0  0  0  0  0  0  0  0
    4.7579    1.4496   -0.7170 C   0  0  0  0  0  0  0  0  0  0  0  0
    5.7110    0.4916   -0.3125 C   0  0  0  0  0  0  0  0  0  0  0  0
    7.1697    0.7237   -0.5612 C   0  0  0  0  0  0  0  0  0  0  0  0
    0.4207    0.2831   -0.7904 C   0  0  0  0  0  0  0  0  0  0  0  0
   -0.9383    0.1566   -0.5559 C   0  0  0  0  0  0  0  0  0  0  0  0
   -2.2110    0.3674   -1.7523 S   0  0  0  0  0  6  0  0  0  0  0  0
   -2.1318   -0.7182   -2.7053 O   0  0  0  0  0  0  0  0  0  0  0  0
   -2.2744    1.7657   -2.1179 O   0  0  0  0  0  0  0  0  0  0  0  0
   -7.7218   -1.0088    0.5469 H   0  0  0  0  0  0  0  0  0  0  0  0
   -7.6295    0.7178    0.1166 H   0  0  0  0  0  0  0  0  0  0  0  0
   -7.4580   -0.5398   -1.1324 H   0  0  0  0  0  0  0  0  0  0  0  0
   -5.9133   -0.7611    2.2453 H   0  0  0  0  0  0  0  0  0  0  0  0
   -3.4924   -0.7371    2.6933 H   0  0  0  0  0  0  0  0  0  0  0  0
   -5.2149    0.2416   -1.9093 H   0  0  0  0  0  0  0  0  0  0  0  0
   -1.0176   -0.6238    2.7423 H   0  0  0  0  0  0  0  0  0  0  0  0
    1.3985   -0.4102    2.4026 H   0  0  0  0  0  0  0  0  0  0  0  0
    5.0974    2.3613   -1.2104 H   0  0  0  0  0  0  0  0  0  0  0  0
    7.4932    1.6448   -0.0659 H   0  0  0  0  0  0  0  0  0  0  0  0
    7.7826   -0.0975   -0.1781 H   0  0  0  0  0  0  0  0  0  0  0  0
    7.3575    0.8125   -1.6359 H   0  0  0  0  0  0  0  0  0  0  0  0
    0.7812    0.5345   -1.7841 H   0  0  0  0  0  0  0  0  0  0  0  0
  1  2  1  0
  2  3  2  0
  3  4  1  0
  4  5  2  0
  5  6  1  0
  6  7  2  0
  5  8  1  0
  8  9  2  0
  9 10  1  0
 10 11  2  0
 11 12  1  0
 12 13  1  0
 13 14  2  0
 14 15  1  0
 15 16  1  0
 16 17  2  0
 12 18  2  0
 18 19  1  0
 18 20  1  0
 20 21  2  0
 21 22  1  0
 11 23  1  0
 23 24  2  0
 24 25  1  0
 25 26  2  0
 25 27  2  0
  7  2  1  0
 25  6  1  0
 24  8  1  0
 17 13  1  0
 21 17  1  0
  1 28  1  0
  1 29  1  0
  1 30  1  0
  3 31  1  0
  4 32  1  0
  7 33  1  0
  9 34  1  0
 10 35  1  0
 20 36  1  0
 22 37  1  0
 22 38  1  0
 22 39  1  0
 23 40  1  0
M  END
