
     RDKit          3D

 46 52  0  0  0  0  0  0  0  0999 V2000
    4.8964    1.0300    2.3962 Si  0  0  0  0  0  4  0  0  0  0  0  0
    5.7999    0.9227    0.7588 C   0  0  0  0  0  0  0  0  0  0  0  0
    4.9509    0.5811   -0.2280 C   0  0  0  0  0  0  0  0  0  0  0  0
    5.3115    0.4105   -1.6208 C   0  0  0  0  0  0  0  0  0  0  0  0
    4.3517    0.0689   -2.5008 C   0  0  0  0  0  0  0  0  0  0  0  0
    2.9618   -0.1342   -2.0952 C   0  0  0  0  0  0  0  0  0  0  0  0
    2.5453   -0.0049   -0.8132 C   0  0  0  0  0  0  0  0  0  0  0  0
    1.1271   -0.2177   -0.5329 C   0  0  0  0  0  0  0  0  0  0  0  0
    0.1320    0.7603   -0.6601 C   0  0  0  0  0  0  0  0  0  0  0  0
   -1.2687    0.5202   -0.3588 C   0  0  0  0  0  0  0  0  0  0  0  0
   -2.2484    1.5290   -0.4850 C   0  0  0  0  0  0  0  0  0  0  0  0
   -2.0488    2.8317   -0.8849 C   0  0  0  0  0  0  0  0  0  0  0  0
   -3.2690    3.4673   -0.8628 N   0  0  0  0  0  0  0  0  0  0  0  0
   -4.2473    2.5905   -0.4556 C   0  0  0  0  0  0  0  0  0  0  0  0
   -3.6399    1.3795   -0.2138 C   0  0  0  0  0  0  0  0  0  0  0  0
   -4.2712    0.1937    0.2175 C   0  0  0  0  0  0  0  0  0  0  0  0
   -5.6543    0.0684    0.4697 C   0  0  0  0  0  0  0  0  0  0  0  0
   -6.1262   -1.1607    0.8690 C   0  0  0  0  0  0  0  0  0  0  0  0
   -5.3367   -2.2362    1.0204 N   0  0  0  0  0  0  0  0  0  0  0  0
   -4.0056   -2.0701    0.7666 C   0  0  0  0  0  0  0  0  0  0  0  0
   -3.3535   -0.8911    0.3689 C   0  0  0  0  0  0  0  0  0  0  0  0
   -1.8773   -0.7346    0.1063 C   0  0  0  0  0  0  0  0  0  0  0  0
   -0.7943   -1.6769    0.2349 C   0  0  0  0  0  0  0  0  0  0  0  0
   -0.8367   -2.9767    0.6905 C   0  0  0  0  0  0  0  0  0  0  0  0
    0.4389   -3.5026    0.6440 N   0  0  0  0  0  0  0  0  0  0  0  0
    1.3190   -2.5605    0.1840 C   0  0  0  0  0  0  0  0  0  0  0  0
    0.5957   -1.4195   -0.0686 C   0  0  0  0  0  0  0  0  0  0  0  0
    3.5432    0.3737    0.1915 C   0  0  0  0  0  0  0  0  0  0  0  0
    3.3217    0.5619    1.5083 C   0  0  0  0  0  0  0  0  0  0  0  0
    5.3460   -0.0110    3.3525 H   0  0  0  0  0  0  0  0  0  0  0  0
    4.8648    2.4140    2.9287 H   0  0  0  0  0  0  0  0  0  0  0  0
    6.8566    1.1200    0.6795 H   0  0  0  0  0  0  0  0  0  0  0  0
    6.3389    0.5588   -1.9318 H   0  0  0  0  0  0  0  0  0  0  0  0
    4.5887   -0.0672   -3.5514 H   0  0  0  0  0  0  0  0  0  0  0  0
    2.2659   -0.4053   -2.8855 H   0  0  0  0  0  0  0  0  0  0  0  0
    0.4401    1.7480   -0.9979 H   0  0  0  0  0  0  0  0  0  0  0  0
   -1.1646    3.3778   -1.1829 H   0  0  0  0  0  0  0  0  0  0  0  0
   -3.4227    4.4364   -1.1103 H   0  0  0  0  0  0  0  0  0  0  0  0
   -5.2738    2.9213   -0.3816 H   0  0  0  0  0  0  0  0  0  0  0  0
   -6.3364    0.9011    0.3547 H   0  0  0  0  0  0  0  0  0  0  0  0
   -7.1793   -1.3201    1.0784 H   0  0  0  0  0  0  0  0  0  0  0  0
   -3.4685   -2.9974    0.8941 H   0  0  0  0  0  0  0  0  0  0  0  0
   -1.6182   -3.6165    1.0620 H   0  0  0  0  0  0  0  0  0  0  0  0
    0.6877   -4.4430    0.9229 H   0  0  0  0  0  0  0  0  0  0  0  0
    2.3733   -2.7856    0.0893 H   0  0  0  0  0  0  0  0  0  0  0  0
    2.3844    0.4647    2.0332 H   0  0  0  0  0  0  0  0  0  0  0  0
  1  2  1  0
  2  3  2  0
  3  4  1  0
  4  5  2  0
  5  6  1  0
  6  7  2  0
  7  8  1  0
  8  9  2  0
  9 10  1  0
 10 11  1  0
 11 12  2  0
 12 13  1  0
 13 14  1  0
 14 15  2  0
 15 16  1  0
 16 17  2  0
 17 18  1  0
 18 19  2  0
 19 20  1  0
 20 21  2  0
 21 22  1  0
 22 23  1  0
 23 24  2  0
 24 25  1  0
 25 26  1  0
 26 27  2  0
  7 28  1  0
 28 29  2  0
 29  1  1  0
 28  3  1  0
 27  8  1  0
 22 10  2  0
 27 23  1  0
 15 11  1  0
 21 16  1  0
  1 30  1  0
  1 31  1  0
  2 32  1  0
  4 33  1  0
  5 34  1  0
  6 35  1  0
  9 36  1  0
 12 37  1  0
 13 38  1  0
 14 39  1  0
 17 40  1  0
 18 41  1  0
 20 42  1  0
 24 43  1  0
 25 44  1  0
 26 45  1  0
 29 46  1  0
M  END
