
     RDKit          3D

 46 49  0  0  0  0  0  0  0  0999 V2000
    7.7107   -0.5580    0.9891 C   0  0  0  0  0  0  0  0  0  0  0  0
    6.2735   -0.5230    0.5558 C   0  0  0  0  0  0  0  0  0  0  0  0
    5.8578   -1.2580   -0.5765 C   0  0  0  0  0  0  0  0  0  0  0  0
    4.5167   -1.2733   -0.9932 C   0  0  0  0  0  0  0  0  0  0  0  0
    3.5762   -0.5567   -0.2683 C   0  0  0  0  0  0  0  0  0  0  0  0
    4.0186    0.1542    0.8619 C   0  0  0  0  0  0  0  0  0  0  0  0
    5.3302    0.1908    1.3004 C   0  0  0  0  0  0  0  0  0  0  0  0
    2.1366   -0.4270   -0.5055 C   0  0  0  0  0  0  0  0  0  0  0  0
    1.3664   -0.9842   -1.5134 C   0  0  0  0  0  0  0  0  0  0  0  0
   -0.0141   -0.7213   -1.5417 C   0  0  0  0  0  0  0  0  0  0  0  0
   -0.6483    0.0970   -0.5742 C   0  0  0  0  0  0  0  0  0  0  0  0
   -2.1031    0.3375   -0.6274 C   0  0  0  0  0  0  0  0  0  0  0  0
   -2.9094   -0.0668    0.4530 C   0  0  0  0  0  0  0  0  0  0  0  0
   -4.2928    0.1443    0.4367 C   0  0  0  0  0  0  0  0  0  0  0  0
   -5.1713   -0.2714    1.5647 C   0  0  0  0  0  0  0  0  0  0  0  0
   -4.7327   -1.3447    2.3326 N   0  0  0  0  0  0  0  0  0  0  0  0
   -5.5811   -1.8498    3.3440 N   0  0  0  0  0  0  0  0  0  0  0  0
   -6.2410    0.2989    1.7652 O   0  0  0  0  0  0  0  0  0  0  0  0
   -4.8822    0.7872   -0.6585 C   0  0  0  0  0  0  0  0  0  0  0  0
   -4.1114    1.1998   -1.7554 C   0  0  0  0  0  0  0  0  0  0  0  0
   -4.7932    1.8750   -2.9115 C   0  0  0  0  0  0  0  0  0  0  0  0
   -2.7252    0.9729   -1.7234 C   0  0  0  0  0  0  0  0  0  0  0  0
   -1.9253    1.3789   -2.7615 O   0  0  0  0  0  0  0  0  0  0  0  0
    0.1325    0.6607    0.4437 C   0  0  0  0  0  0  0  0  0  0  0  0
    1.4884    0.3824    0.4432 C   0  0  0  0  0  0  0  0  0  0  0  0
    2.6568    0.9716    1.6186 S   0  0  0  0  0  6  0  0  0  0  0  0
    2.3838    0.3376    2.8903 O   0  0  0  0  0  0  0  0  0  0  0  0
    2.8137    2.3984    1.4396 O   0  0  0  0  0  0  0  0  0  0  0  0
    7.8808   -1.4131    1.6503 H   0  0  0  0  0  0  0  0  0  0  0  0
    7.9813    0.3601    1.5212 H   0  0  0  0  0  0  0  0  0  0  0  0
    8.3762   -0.6398    0.1234 H   0  0  0  0  0  0  0  0  0  0  0  0
    6.5900   -1.8289   -1.1465 H   0  0  0  0  0  0  0  0  0  0  0  0
    4.2374   -1.8466   -1.8721 H   0  0  0  0  0  0  0  0  0  0  0  0
    5.6052    0.7544    2.1866 H   0  0  0  0  0  0  0  0  0  0  0  0
    1.8047   -1.6149   -2.2810 H   0  0  0  0  0  0  0  0  0  0  0  0
   -0.6114   -1.1591   -2.3417 H   0  0  0  0  0  0  0  0  0  0  0  0
   -2.4350   -0.5313    1.3145 H   0  0  0  0  0  0  0  0  0  0  0  0
   -3.9716   -1.9378    2.0097 H   0  0  0  0  0  0  0  0  0  0  0  0
   -6.5460   -1.6421    3.0508 H   0  0  0  0  0  0  0  0  0  0  0  0
   -5.4594   -1.2513    4.1672 H   0  0  0  0  0  0  0  0  0  0  0  0
   -5.9584    0.9609   -0.6537 H   0  0  0  0  0  0  0  0  0  0  0  0
   -4.4806    2.9221   -2.9743 H   0  0  0  0  0  0  0  0  0  0  0  0
   -5.8830    1.8565   -2.8051 H   0  0  0  0  0  0  0  0  0  0  0  0
   -4.5499    1.3636   -3.8485 H   0  0  0  0  0  0  0  0  0  0  0  0
   -2.4130    1.9903   -3.3341 H   0  0  0  0  0  0  0  0  0  0  0  0
   -0.2981    1.3041    1.2052 H   0  0  0  0  0  0  0  0  0  0  0  0
  1  2  1  0
  2  3  2  0
  3  4  1  0
  4  5  2  0
  5  6  1  0
  6  7  2  0
  5  8  1  0
  8  9  2  0
  9 10  1  0
 10 11  2  0
 11 12  1  0
 12 13  2  0
 13 14  1  0
 14 15  1  0
 15 16  1  0
 16 17  1  0
 15 18  2  0
 14 19  2  0
 19 20  1  0
 20 21  1  0
 20 22  2  0
 22 23  1  0
 11 24  1  0
 24 25  2  0
 25 26  1  0
 26 27  2  0
 26 28  2  0
  7  2  1  0
 26  6  1  0
 25  8  1  0
 22 12  1  0
  1 29  1  0
  1 30  1  0
  1 31  1  0
  3 32  1  0
  4 33  1  0
  7 34  1  0
  9 35  1  0
 10 36  1  0
 13 37  1  0
 16 38  1  0
 17 39  1  0
 17 40  1  0
 19 41  1  0
 21 42  1  0
 21 43  1  0
 21 44  1  0
 23 45  1  0
 24 46  1  0
M  END
