
     RDKit          3D

 49 52  0  0  0  0  0  0  0  0999 V2000
   -7.9289   -0.4823   -0.9518 C   0  0  0  0  0  0  0  0  0  0  0  0
   -6.4937   -0.2163   -0.6004 C   0  0  0  0  0  0  0  0  0  0  0  0
   -6.1598    0.8681    0.2411 C   0  0  0  0  0  0  0  0  0  0  0  0
   -4.8260    1.1644    0.5663 C   0  0  0  0  0  0  0  0  0  0  0  0
   -3.8119    0.3780    0.0402 C   0  0  0  0  0  0  0  0  0  0  0  0
   -4.1753   -0.6857   -0.8050 C   0  0  0  0  0  0  0  0  0  0  0  0
   -5.4773   -1.0047   -1.1468 C   0  0  0  0  0  0  0  0  0  0  0  0
   -2.3648    0.4930    0.2345 C   0  0  0  0  0  0  0  0  0  0  0  0
   -1.6602    1.4042    1.0043 C   0  0  0  0  0  0  0  0  0  0  0  0
   -0.2584    1.3168    1.0520 C   0  0  0  0  0  0  0  0  0  0  0  0
    0.4640    0.3264    0.3400 C   0  0  0  0  0  0  0  0  0  0  0  0
    1.9366    0.2626    0.4222 C   0  0  0  0  0  0  0  0  0  0  0  0
    2.7004    0.3282   -0.7564 C   0  0  0  0  0  0  0  0  0  0  0  0
    4.1013    0.3108   -0.7212 C   0  0  0  0  0  0  0  0  0  0  0  0
    4.8687    0.3875   -2.0036 C   0  0  0  0  0  0  0  0  0  0  0  0
    6.1983    0.7644   -1.9799 N   0  0  0  0  0  0  0  0  0  0  0  0
    6.7497    0.9645   -3.2500 O   0  0  0  0  0  0  0  0  0  0  0  0
    4.2628    0.0924   -3.1134 N   0  0  0  0  0  0  0  0  0  0  0  0
    4.7643    0.2296    0.5082 C   0  0  0  0  0  0  0  0  0  0  0  0
    4.0374    0.1727    1.7050 C   0  0  0  0  0  0  0  0  0  0  0  0
    4.7681    0.0833    3.0149 C   0  0  0  0  0  0  0  0  0  0  0  0
    2.6309    0.1508    1.6470 C   0  0  0  0  0  0  0  0  0  0  0  0
    1.9391    0.0738    2.8351 O   0  0  0  0  0  0  0  0  0  0  0  0
    1.5737   -1.2809    3.1101 C   0  0  0  0  0  0  0  0  0  0  0  0
   -0.2510   -0.5888   -0.4448 C   0  0  0  0  0  0  0  0  0  0  0  0
   -1.6306   -0.4775   -0.4690 C   0  0  0  0  0  0  0  0  0  0  0  0
   -2.7305   -1.5268   -1.3546 S   0  0  0  0  0  6  0  0  0  0  0  0
   -2.7025   -2.8393   -0.7460 O   0  0  0  0  0  0  0  0  0  0  0  0
   -2.5663   -1.2832   -2.7708 O   0  0  0  0  0  0  0  0  0  0  0  0
   -8.5894   -0.2132   -0.1209 H   0  0  0  0  0  0  0  0  0  0  0  0
   -8.0890   -1.5454   -1.1616 H   0  0  0  0  0  0  0  0  0  0  0  0
   -8.2121    0.0991   -1.8348 H   0  0  0  0  0  0  0  0  0  0  0  0
   -6.9508    1.4952    0.6512 H   0  0  0  0  0  0  0  0  0  0  0  0
   -4.6099    2.0049    1.2195 H   0  0  0  0  0  0  0  0  0  0  0  0
   -5.6897   -1.8343   -1.8138 H   0  0  0  0  0  0  0  0  0  0  0  0
   -2.1653    2.1784    1.5731 H   0  0  0  0  0  0  0  0  0  0  0  0
    0.2864    2.0371    1.6628 H   0  0  0  0  0  0  0  0  0  0  0  0
    2.1998    0.4137   -1.7206 H   0  0  0  0  0  0  0  0  0  0  0  0
    6.4149    1.5190   -1.3285 H   0  0  0  0  0  0  0  0  0  0  0  0
    7.1200    0.0849   -3.4639 H   0  0  0  0  0  0  0  0  0  0  0  0
    4.9435    0.2559   -3.8648 H   0  0  0  0  0  0  0  0  0  0  0  0
    5.8499    0.1931    0.5458 H   0  0  0  0  0  0  0  0  0  0  0  0
    4.7988   -0.9551    3.3584 H   0  0  0  0  0  0  0  0  0  0  0  0
    5.7976    0.4452    2.9177 H   0  0  0  0  0  0  0  0  0  0  0  0
    4.2840    0.7026    3.7773 H   0  0  0  0  0  0  0  0  0  0  0  0
    0.8474   -1.6574    2.3819 H   0  0  0  0  0  0  0  0  0  0  0  0
    1.1035   -1.3037    4.0989 H   0  0  0  0  0  0  0  0  0  0  0  0
    2.4529   -1.9358    3.1372 H   0  0  0  0  0  0  0  0  0  0  0  0
    0.2493   -1.3703   -1.0098 H   0  0  0  0  0  0  0  0  0  0  0  0
  1  2  1  0
  2  3  2  0
  3  4  1  0
  4  5  2  0
  5  6  1  0
  6  7  2  0
  5  8  1  0
  8  9  2  0
  9 10  1  0
 10 11  2  0
 11 12  1  0
 12 13  2  0
 13 14  1  0
 14 15  1  0
 15 16  1  0
 16 17  1  0
 15 18  2  3
 14 19  2  0
 19 20  1  0
 20 21  1  0
 20 22  2  0
 22 23  1  0
 23 24  1  0
 11 25  1  0
 25 26  2  0
 26 27  1  0
 27 28  2  0
 27 29  2  0
  7  2  1  0
 27  6  1  0
 26  8  1  0
 22 12  1  0
  1 30  1  0
  1 31  1  0
  1 32  1  0
  3 33  1  0
  4 34  1  0
  7 35  1  0
  9 36  1  0
 10 37  1  0
 13 38  1  0
 16 39  1  0
 17 40  1  0
 18 41  1  0
 19 42  1  0
 21 43  1  0
 21 44  1  0
 21 45  1  0
 24 46  1  0
 24 47  1  0
 24 48  1  0
 25 49  1  0
M  END
