
     RDKit          3D

 49 52  0  0  0  0  0  0  0  0999 V2000
    8.8906    0.1079   -0.3067 C   0  0  0  0  0  0  0  0  0  0  0  0
    7.4147   -0.1636   -0.2552 C   0  0  0  0  0  0  0  0  0  0  0  0
    6.9363   -1.4894   -0.3494 C   0  0  0  0  0  0  0  0  0  0  0  0
    5.5622   -1.7797   -0.3355 C   0  0  0  0  0  0  0  0  0  0  0  0
    4.6529   -0.7369   -0.2373 C   0  0  0  0  0  0  0  0  0  0  0  0
    5.1596    0.5730   -0.1587 C   0  0  0  0  0  0  0  0  0  0  0  0
    6.5053    0.8945   -0.1700 C   0  0  0  0  0  0  0  0  0  0  0  0
    3.1895   -0.7931   -0.2069 C   0  0  0  0  0  0  0  0  0  0  0  0
    2.3588   -1.9010   -0.2635 C   0  0  0  0  0  0  0  0  0  0  0  0
    0.9662   -1.7136   -0.2186 C   0  0  0  0  0  0  0  0  0  0  0  0
    0.3801   -0.4276   -0.1143 C   0  0  0  0  0  0  0  0  0  0  0  0
   -1.0817   -0.2707   -0.0689 C   0  0  0  0  0  0  0  0  0  0  0  0
   -1.7050    0.3936    0.9989 C   0  0  0  0  0  0  0  0  0  0  0  0
   -3.1009    0.5523    1.0513 C   0  0  0  0  0  0  0  0  0  0  0  0
   -3.7242    1.2645    2.2206 C   0  0  0  0  0  0  0  0  0  0  0  0
   -3.8956    0.0411    0.0116 C   0  0  0  0  0  0  0  0  0  0  0  0
   -3.2855   -0.6226   -1.0548 C   0  0  0  0  0  0  0  0  0  0  0  0
   -1.8945   -0.7748   -1.0924 C   0  0  0  0  0  0  0  0  0  0  0  0
   -5.2438    0.2441    0.1417 O   0  0  0  0  0  0  0  0  0  0  0  0
   -6.0836   -0.2205   -0.9109 C   0  0  0  0  0  0  0  0  0  0  0  0
   -7.5459    0.1247   -0.6380 C   0  0  0  0  0  0  0  0  0  0  0  0
   -7.7396    0.9764    0.4419 N   0  0  0  0  0  0  0  0  0  0  0  0
   -9.0487    1.2688    0.8795 N   0  0  0  0  0  0  0  0  0  0  0  0
   -8.4686   -0.3024   -1.3323 O   0  0  0  0  0  0  0  0  0  0  0  0
    1.2216    0.6911   -0.0553 C   0  0  0  0  0  0  0  0  0  0  0  0
    2.5875    0.4729   -0.1051 C   0  0  0  0  0  0  0  0  0  0  0  0
    3.8286    1.7187   -0.0521 S   0  0  0  0  0  6  0  0  0  0  0  0
    3.7712    2.4775   -1.2824 O   0  0  0  0  0  0  0  0  0  0  0  0
    3.8297    2.3100    1.2681 O   0  0  0  0  0  0  0  0  0  0  0  0
    9.4495   -0.6893    0.1953 H   0  0  0  0  0  0  0  0  0  0  0  0
    9.2218    0.1745   -1.3478 H   0  0  0  0  0  0  0  0  0  0  0  0
    9.1351    1.0464    0.2025 H   0  0  0  0  0  0  0  0  0  0  0  0
    7.6450   -2.3125   -0.4355 H   0  0  0  0  0  0  0  0  0  0  0  0
    5.2344   -2.8129   -0.4056 H   0  0  0  0  0  0  0  0  0  0  0  0
    6.8309    1.9286   -0.1140 H   0  0  0  0  0  0  0  0  0  0  0  0
    2.7599   -2.9076   -0.3384 H   0  0  0  0  0  0  0  0  0  0  0  0
    0.3237   -2.5933   -0.2529 H   0  0  0  0  0  0  0  0  0  0  0  0
   -1.0944    0.7859    1.8113 H   0  0  0  0  0  0  0  0  0  0  0  0
   -2.9688    1.5959    2.9405 H   0  0  0  0  0  0  0  0  0  0  0  0
   -4.2684    2.1507    1.8783 H   0  0  0  0  0  0  0  0  0  0  0  0
   -4.4128    0.5957    2.7466 H   0  0  0  0  0  0  0  0  0  0  0  0
   -3.8567   -1.0369   -1.8793 H   0  0  0  0  0  0  0  0  0  0  0  0
   -1.4463   -1.2848   -1.9435 H   0  0  0  0  0  0  0  0  0  0  0  0
   -6.0197   -1.3121   -0.9861 H   0  0  0  0  0  0  0  0  0  0  0  0
   -5.8135    0.2592   -1.8590 H   0  0  0  0  0  0  0  0  0  0  0  0
   -6.9489    1.1405    1.0679 H   0  0  0  0  0  0  0  0  0  0  0  0
   -9.6520    0.4991    0.5616 H   0  0  0  0  0  0  0  0  0  0  0  0
   -9.3820    2.0707    0.3368 H   0  0  0  0  0  0  0  0  0  0  0  0
    0.8263    1.7007    0.0157 H   0  0  0  0  0  0  0  0  0  0  0  0
  1  2  1  0
  2  3  2  0
  3  4  1  0
  4  5  2  0
  5  6  1  0
  6  7  2  0
  5  8  1  0
  8  9  2  0
  9 10  1  0
 10 11  2  0
 11 12  1  0
 12 13  2  0
 13 14  1  0
 14 15  1  0
 14 16  2  0
 16 17  1  0
 17 18  2  0
 16 19  1  0
 19 20  1  0
 20 21  1  0
 21 22  1  0
 22 23  1  0
 21 24  2  0
 11 25  1  0
 25 26  2  0
 26 27  1  0
 27 28  2  0
 27 29  2  0
  7  2  1  0
 27  6  1  0
 26  8  1  0
 18 12  1  0
  1 30  1  0
  1 31  1  0
  1 32  1  0
  3 33  1  0
  4 34  1  0
  7 35  1  0
  9 36  1  0
 10 37  1  0
 13 38  1  0
 15 39  1  0
 15 40  1  0
 15 41  1  0
 17 42  1  0
 18 43  1  0
 20 44  1  0
 20 45  1  0
 22 46  1  0
 23 47  1  0
 23 48  1  0
 25 49  1  0
M  END
