
     RDKit          3D

 39 42  0  0  0  0  0  0  0  0999 V2000
    6.8766   -0.9950    0.1152 C   0  0  0  0  0  0  0  0  0  0  0  0
    5.4447   -0.5453    0.0737 C   0  0  0  0  0  0  0  0  0  0  0  0
    5.1225    0.7496   -0.3892 C   0  0  0  0  0  0  0  0  0  0  0  0
    3.7923    1.1928   -0.4716 C   0  0  0  0  0  0  0  0  0  0  0  0
    2.7698    0.3333   -0.0981 C   0  0  0  0  0  0  0  0  0  0  0  0
    3.1217   -0.9539    0.3459 C   0  0  0  0  0  0  0  0  0  0  0  0
    4.4199   -1.4229    0.4388 C   0  0  0  0  0  0  0  0  0  0  0  0
    1.3242    0.5677   -0.1004 C   0  0  0  0  0  0  0  0  0  0  0  0
    0.6270    1.7058   -0.4716 C   0  0  0  0  0  0  0  0  0  0  0  0
   -0.7781    1.7063   -0.3908 C   0  0  0  0  0  0  0  0  0  0  0  0
   -1.5161    0.5812    0.0619 C   0  0  0  0  0  0  0  0  0  0  0  0
   -2.9919    0.5963    0.1418 C   0  0  0  0  0  0  0  0  0  0  0  0
   -3.7221    1.7319    0.4831 C   0  0  0  0  0  0  0  0  0  0  0  0
   -5.1054    1.6348    0.5297 C   0  0  0  0  0  0  0  0  0  0  0  0
   -5.8870    2.7035    0.8594 O   0  0  0  0  0  0  0  0  0  0  0  0
   -5.7395    0.4385    0.2443 C   0  0  0  0  0  0  0  0  0  0  0  0
   -4.9516   -0.6545   -0.0797 C   0  0  0  0  0  0  0  0  0  0  0  0
   -5.5864   -1.9761   -0.3912 C   0  0  0  0  0  0  0  0  0  0  0  0
   -3.5992   -0.5877   -0.1294 N   0  0  0  0  0  0  0  0  0  0  0  0
   -0.7999   -0.5711    0.4255 C   0  0  0  0  0  0  0  0  0  0  0  0
    0.5811   -0.5408    0.3365 C   0  0  0  0  0  0  0  0  0  0  0  0
    1.6679   -1.8605    0.7513 S   0  0  0  0  0  6  0  0  0  0  0  0
    1.6351   -2.0535    2.1849 O   0  0  0  0  0  0  0  0  0  0  0  0
    1.5064   -2.9225   -0.2174 O   0  0  0  0  0  0  0  0  0  0  0  0
    7.0262   -1.7531    0.8911 H   0  0  0  0  0  0  0  0  0  0  0  0
    7.1636   -1.4179   -0.8524 H   0  0  0  0  0  0  0  0  0  0  0  0
    7.5412   -0.1564    0.3480 H   0  0  0  0  0  0  0  0  0  0  0  0
    5.9203    1.4271   -0.6919 H   0  0  0  0  0  0  0  0  0  0  0  0
    3.5860    2.1970   -0.8293 H   0  0  0  0  0  0  0  0  0  0  0  0
    4.6231   -2.4326    0.7823 H   0  0  0  0  0  0  0  0  0  0  0  0
    1.1419    2.5925   -0.8296 H   0  0  0  0  0  0  0  0  0  0  0  0
   -1.3024    2.6049   -0.7135 H   0  0  0  0  0  0  0  0  0  0  0  0
   -3.2218    2.6614    0.7231 H   0  0  0  0  0  0  0  0  0  0  0  0
   -5.3190    3.4639    1.0664 H   0  0  0  0  0  0  0  0  0  0  0  0
   -6.8205    0.3637    0.2805 H   0  0  0  0  0  0  0  0  0  0  0  0
   -6.1636   -2.3305    0.4684 H   0  0  0  0  0  0  0  0  0  0  0  0
   -4.8258   -2.7283   -0.6245 H   0  0  0  0  0  0  0  0  0  0  0  0
   -6.2497   -1.8826   -1.2567 H   0  0  0  0  0  0  0  0  0  0  0  0
   -1.3112   -1.4670    0.7694 H   0  0  0  0  0  0  0  0  0  0  0  0
  1  2  1  0
  2  3  2  0
  3  4  1  0
  4  5  2  0
  5  6  1  0
  6  7  2  0
  5  8  1  0
  8  9  2  0
  9 10  1  0
 10 11  2  0
 11 12  1  0
 12 13  2  0
 13 14  1  0
 14 15  1  0
 14 16  2  0
 16 17  1  0
 17 18  1  0
 17 19  2  0
 11 20  1  0
 20 21  2  0
 21 22  1  0
 22 23  2  0
 22 24  2  0
  7  2  1  0
 22  6  1  0
 21  8  1  0
 19 12  1  0
  1 25  1  0
  1 26  1  0
  1 27  1  0
  3 28  1  0
  4 29  1  0
  7 30  1  0
  9 31  1  0
 10 32  1  0
 13 33  1  0
 15 34  1  0
 16 35  1  0
 18 36  1  0
 18 37  1  0
 18 38  1  0
 20 39  1  0
M  END
