
     RDKit          3D

 49 54  0  0  0  0  0  0  0  0999 V2000
   -9.0487   -0.3275   -0.5295 C   0  0  0  0  0  0  0  0  0  0  0  0
   -7.5949   -0.2485   -0.1626 C   0  0  0  0  0  0  0  0  0  0  0  0
   -7.2106    0.2406    1.1055 C   0  0  0  0  0  0  0  0  0  0  0  0
   -5.8597    0.3582    1.4713 C   0  0  0  0  0  0  0  0  0  0  0  0
   -4.8793   -0.0058    0.5604 C   0  0  0  0  0  0  0  0  0  0  0  0
   -5.2932   -0.4766   -0.6987 C   0  0  0  0  0  0  0  0  0  0  0  0
   -6.6134   -0.6045   -1.0920 C   0  0  0  0  0  0  0  0  0  0  0  0
   -3.4230    0.0319    0.7128 C   0  0  0  0  0  0  0  0  0  0  0  0
   -2.6722    0.4309    1.8069 C   0  0  0  0  0  0  0  0  0  0  0  0
   -1.2694    0.3803    1.7280 C   0  0  0  0  0  0  0  0  0  0  0  0
   -0.5931   -0.0644    0.5643 C   0  0  0  0  0  0  0  0  0  0  0  0
    0.8780   -0.1049    0.5207 C   0  0  0  0  0  0  0  0  0  0  0  0
    1.5835    0.5608   -0.4939 C   0  0  0  0  0  0  0  0  0  0  0  0
    2.9642    0.4845   -0.4789 C   0  0  0  0  0  0  0  0  0  0  0  0
    3.6906   -0.2221    0.4916 C   0  0  0  0  0  0  0  0  0  0  0  0
    3.0124   -0.8848    1.4961 C   0  0  0  0  0  0  0  0  0  0  0  0
    1.6095   -0.8215    1.5046 C   0  0  0  0  0  0  0  0  0  0  0  0
    5.1050   -0.0972    0.2112 C   0  0  0  0  0  0  0  0  0  0  0  0
    5.2784    0.6925   -0.9369 C   0  0  0  0  0  0  0  0  0  0  0  0
    6.5157    0.9997   -1.4700 C   0  0  0  0  0  0  0  0  0  0  0  0
    7.6439    0.4961   -0.8110 C   0  0  0  0  0  0  0  0  0  0  0  0
    7.4837   -0.3123    0.3391 C   0  0  0  0  0  0  0  0  0  0  0  0
    6.2147   -0.6087    0.8587 C   0  0  0  0  0  0  0  0  0  0  0  0
    9.0172    0.7629   -1.3566 C   0  0  0  0  0  0  0  0  0  0  0  0
    3.9364    1.0887   -1.4149 C   0  0  0  0  0  0  0  0  0  0  0  0
    3.6815    1.7741   -2.3820 O   0  0  0  0  0  0  0  0  0  0  0  0
   -1.3545   -0.4643   -0.5420 C   0  0  0  0  0  0  0  0  0  0  0  0
   -2.7333   -0.4049   -0.4310 C   0  0  0  0  0  0  0  0  0  0  0  0
   -3.8848   -0.8640   -1.6797 S   0  0  0  0  0  6  0  0  0  0  0  0
   -3.7972    0.0923   -2.7614 O   0  0  0  0  0  0  0  0  0  0  0  0
   -3.8243   -2.2988   -1.8549 O   0  0  0  0  0  0  0  0  0  0  0  0
   -9.2235   -1.1175   -1.2674 H   0  0  0  0  0  0  0  0  0  0  0  0
   -9.3807    0.6273   -0.9485 H   0  0  0  0  0  0  0  0  0  0  0  0
   -9.6594   -0.5622    0.3485 H   0  0  0  0  0  0  0  0  0  0  0  0
   -7.9755    0.5359    1.8230 H   0  0  0  0  0  0  0  0  0  0  0  0
   -5.6051    0.7353    2.4573 H   0  0  0  0  0  0  0  0  0  0  0  0
   -6.8659   -0.9673   -2.0835 H   0  0  0  0  0  0  0  0  0  0  0  0
   -3.1434    0.7831    2.7197 H   0  0  0  0  0  0  0  0  0  0  0  0
   -0.6915    0.7082    2.5921 H   0  0  0  0  0  0  0  0  0  0  0  0
    1.0794    1.1312   -1.2687 H   0  0  0  0  0  0  0  0  0  0  0  0
    3.5381   -1.4457    2.2620 H   0  0  0  0  0  0  0  0  0  0  0  0
    1.0729   -1.3544    2.2895 H   0  0  0  0  0  0  0  0  0  0  0  0
    6.5928    1.6088   -2.3651 H   0  0  0  0  0  0  0  0  0  0  0  0
    8.3631   -0.7178    0.8382 H   0  0  0  0  0  0  0  0  0  0  0  0
    6.1195   -1.2282    1.7445 H   0  0  0  0  0  0  0  0  0  0  0  0
    9.0473    1.7185   -1.8904 H   0  0  0  0  0  0  0  0  0  0  0  0
    9.3071   -0.0364   -2.0455 H   0  0  0  0  0  0  0  0  0  0  0  0
    9.7530    0.8194   -0.5475 H   0  0  0  0  0  0  0  0  0  0  0  0
   -0.8911   -0.8209   -1.4575 H   0  0  0  0  0  0  0  0  0  0  0  0
  1  2  1  0
  2  3  2  0
  3  4  1  0
  4  5  2  0
  5  6  1  0
  6  7  2  0
  5  8  1  0
  8  9  2  0
  9 10  1  0
 10 11  2  0
 11 12  1  0
 12 13  2  0
 13 14  1  0
 14 15  2  0
 15 16  1  0
 16 17  2  0
 15 18  1  0
 18 19  2  0
 19 20  1  0
 20 21  2  0
 21 22  1  0
 22 23  2  0
 21 24  1  0
 19 25  1  0
 25 26  2  0
 11 27  1  0
 27 28  2  0
 28 29  1  0
 29 30  2  0
 29 31  2  0
  7  2  1  0
 29  6  1  0
 28  8  1  0
 17 12  1  0
 25 14  1  0
 23 18  1  0
  1 32  1  0
  1 33  1  0
  1 34  1  0
  3 35  1  0
  4 36  1  0
  7 37  1  0
  9 38  1  0
 10 39  1  0
 13 40  1  0
 16 41  1  0
 17 42  1  0
 20 43  1  0
 22 44  1  0
 23 45  1  0
 24 46  1  0
 24 47  1  0
 24 48  1  0
 27 49  1  0
M  END
