
     RDKit          3D

 38 41  0  0  0  0  0  0  0  0999 V2000
   -7.0953   -0.5477   -0.0544 C   0  0  0  0  0  0  0  0  0  0  0  0
   -5.6151   -0.3121   -0.0055 C   0  0  0  0  0  0  0  0  0  0  0  0
   -4.8060   -0.6531   -1.0931 C   0  0  0  0  0  0  0  0  0  0  0  0
   -3.4212   -0.4644   -1.0343 C   0  0  0  0  0  0  0  0  0  0  0  0
   -2.8084    0.0607    0.1143 C   0  0  0  0  0  0  0  0  0  0  0  0
   -1.3499    0.2596    0.1746 C   0  0  0  0  0  0  0  0  0  0  0  0
   -0.8066    1.5179    0.5472 C   0  0  0  0  0  0  0  0  0  0  0  0
    0.5773    1.7467    0.6155 C   0  0  0  0  0  0  0  0  0  0  0  0
    1.4281    0.7033    0.3066 C   0  0  0  0  0  0  0  0  0  0  0  0
    2.8728    0.6200    0.2820 C   0  0  0  0  0  0  0  0  0  0  0  0
    3.8481    1.5614    0.5553 C   0  0  0  0  0  0  0  0  0  0  0  0
    5.1931    1.1789    0.4404 C   0  0  0  0  0  0  0  0  0  0  0  0
    5.5609   -0.1350    0.0659 C   0  0  0  0  0  0  0  0  0  0  0  0
    4.5685   -1.0797   -0.2229 C   0  0  0  0  0  0  0  0  0  0  0  0
    3.2524   -0.6764   -0.1015 C   0  0  0  0  0  0  0  0  0  0  0  0
    7.0111   -0.4968   -0.0787 C   0  0  0  0  0  0  0  0  0  0  0  0
    0.8885   -0.5383   -0.0624 C   0  0  0  0  0  0  0  0  0  0  0  0
    2.0167   -1.4546   -0.3348 C   0  0  0  0  0  0  0  0  0  0  0  0
    1.9427   -2.6137   -0.6830 O   0  0  0  0  0  0  0  0  0  0  0  0
   -0.4693   -0.7886   -0.1366 C   0  0  0  0  0  0  0  0  0  0  0  0
   -3.6298    0.3849    1.2057 C   0  0  0  0  0  0  0  0  0  0  0  0
   -5.0148    0.1963    1.1499 C   0  0  0  0  0  0  0  0  0  0  0  0
   -7.4745   -0.4399   -1.0761 H   0  0  0  0  0  0  0  0  0  0  0  0
   -7.3259   -1.5555    0.3044 H   0  0  0  0  0  0  0  0  0  0  0  0
   -7.6274    0.1800    0.5674 H   0  0  0  0  0  0  0  0  0  0  0  0
   -5.2463   -1.0676   -1.9973 H   0  0  0  0  0  0  0  0  0  0  0  0
   -2.8215   -0.7269   -1.9037 H   0  0  0  0  0  0  0  0  0  0  0  0
   -1.4798    2.3436    0.7778 H   0  0  0  0  0  0  0  0  0  0  0  0
    0.9552    2.7229    0.9013 H   0  0  0  0  0  0  0  0  0  0  0  0
    3.5925    2.5744    0.8485 H   0  0  0  0  0  0  0  0  0  0  0  0
    5.9678    1.9164    0.6466 H   0  0  0  0  0  0  0  0  0  0  0  0
    4.8067   -2.0929   -0.5305 H   0  0  0  0  0  0  0  0  0  0  0  0
    7.3567   -0.2580   -1.0891 H   0  0  0  0  0  0  0  0  0  0  0  0
    7.6228    0.0516    0.6453 H   0  0  0  0  0  0  0  0  0  0  0  0
    7.1682   -1.5647    0.1060 H   0  0  0  0  0  0  0  0  0  0  0  0
   -0.8262   -1.7748   -0.4181 H   0  0  0  0  0  0  0  0  0  0  0  0
   -3.1926    0.7749    2.1226 H   0  0  0  0  0  0  0  0  0  0  0  0
   -5.6196    0.4471    2.0184 H   0  0  0  0  0  0  0  0  0  0  0  0
  1  2  1  0
  2  3  2  0
  3  4  1  0
  4  5  2  0
  5  6  1  0
  6  7  2  0
  7  8  1  0
  8  9  2  0
  9 10  1  0
 10 11  2  0
 11 12  1  0
 12 13  2  0
 13 14  1  0
 14 15  2  0
 13 16  1  0
  9 17  1  0
 17 18  1  0
 18 19  2  0
 17 20  2  0
  5 21  1  0
 21 22  2  0
 22  2  1  0
 20  6  1  0
 15 10  1  0
 18 15  1  0
  1 23  1  0
  1 24  1  0
  1 25  1  0
  3 26  1  0
  4 27  1  0
  7 28  1  0
  8 29  1  0
 11 30  1  0
 12 31  1  0
 14 32  1  0
 16 33  1  0
 16 34  1  0
 16 35  1  0
 20 36  1  0
 21 37  1  0
 22 38  1  0
M  END
