
     RDKit          3D

 27 28  0  0  0  0  0  0  0  0999 V2000
    4.7952   -0.2069    0.0997 C   0  0  0  0  0  0  0  0  0  0  0  0
    3.3062   -0.0382    0.1476 C   0  0  0  0  0  0  0  0  0  0  0  0
    2.7222    1.2032   -0.1162 C   0  0  0  0  0  0  0  0  0  0  0  0
    1.3295    1.3520   -0.1041 C   0  0  0  0  0  0  0  0  0  0  0  0
    0.4773    0.2662    0.1654 C   0  0  0  0  0  0  0  0  0  0  0  0
   -0.9951    0.4047    0.1891 C   0  0  0  0  0  0  0  0  0  0  0  0
   -1.6976   -0.6958   -0.1888 N   0  0  0  0  0  0  0  0  0  0  0  0
   -3.0506   -0.6359   -0.1935 C   0  0  0  0  0  0  0  0  0  0  0  0
   -3.7896   -1.8671   -0.6237 C   0  0  0  0  0  0  0  0  0  0  0  0
   -3.7508    0.5038    0.1802 C   0  0  0  0  0  0  0  0  0  0  0  0
   -3.0326    1.6240    0.5765 C   0  0  0  0  0  0  0  0  0  0  0  0
   -1.6409    1.5761    0.5831 C   0  0  0  0  0  0  0  0  0  0  0  0
    1.0846   -0.9799    0.4034 C   0  0  0  0  0  0  0  0  0  0  0  0
    2.4755   -1.1336    0.3931 C   0  0  0  0  0  0  0  0  0  0  0  0
    5.1107   -0.4622   -0.9166 H   0  0  0  0  0  0  0  0  0  0  0  0
    5.3026    0.7135    0.4073 H   0  0  0  0  0  0  0  0  0  0  0  0
    5.1207   -0.9999    0.7813 H   0  0  0  0  0  0  0  0  0  0  0  0
    3.3456    2.0660   -0.3400 H   0  0  0  0  0  0  0  0  0  0  0  0
    0.9193    2.3328   -0.3328 H   0  0  0  0  0  0  0  0  0  0  0  0
   -3.0918   -2.6698   -0.8833 H   0  0  0  0  0  0  0  0  0  0  0  0
   -4.4035   -1.6516   -1.5037 H   0  0  0  0  0  0  0  0  0  0  0  0
   -4.4334   -2.2241    0.1861 H   0  0  0  0  0  0  0  0  0  0  0  0
   -4.8355    0.5210    0.1679 H   0  0  0  0  0  0  0  0  0  0  0  0
   -3.5506    2.5282    0.8828 H   0  0  0  0  0  0  0  0  0  0  0  0
   -1.0796    2.4441    0.9110 H   0  0  0  0  0  0  0  0  0  0  0  0
    0.4628   -1.8524    0.6004 H   0  0  0  0  0  0  0  0  0  0  0  0
    2.8995   -2.1181    0.5767 H   0  0  0  0  0  0  0  0  0  0  0  0
  1  2  1  0
  2  3  2  0
  3  4  1  0
  4  5  2  0
  5  6  1  0
  6  7  2  0
  7  8  1  0
  8  9  1  0
  8 10  2  0
 10 11  1  0
 11 12  2  0
  5 13  1  0
 13 14  2  0
 14  2  1  0
 12  6  1  0
  1 15  1  0
  1 16  1  0
  1 17  1  0
  3 18  1  0
  4 19  1  0
  9 20  1  0
  9 21  1  0
  9 22  1  0
 10 23  1  0
 11 24  1  0
 12 25  1  0
 13 26  1  0
 14 27  1  0
M  END
