
     RDKit          3D

 36 38  0  0  0  0  0  0  0  0999 V2000
   -6.1778    0.9530   -0.7085 C   0  0  0  0  0  0  0  0  0  0  0  0
   -4.8249    0.3945   -0.3824 C   0  0  0  0  0  0  0  0  0  0  0  0
   -4.6133   -0.3069    0.8073 C   0  0  0  0  0  0  0  0  0  0  0  0
   -3.3421   -0.7999    1.1264 C   0  0  0  0  0  0  0  0  0  0  0  0
   -2.2434   -0.6019    0.2717 C   0  0  0  0  0  0  0  0  0  0  0  0
   -0.8962   -1.1192    0.5899 C   0  0  0  0  0  0  0  0  0  0  0  0
    0.1422   -0.3508    0.1689 N   0  0  0  0  0  0  0  0  0  0  0  0
    1.4185   -0.7549    0.4246 C   0  0  0  0  0  0  0  0  0  0  0  0
    2.5063    0.1334   -0.0533 C   0  0  0  0  0  0  0  0  0  0  0  0
    3.7843   -0.2926    0.1592 N   0  0  0  0  0  0  0  0  0  0  0  0
    4.8083    0.4883   -0.2621 C   0  0  0  0  0  0  0  0  0  0  0  0
    6.1996   -0.0115   -0.0124 C   0  0  0  0  0  0  0  0  0  0  0  0
    4.6100    1.7059   -0.9012 C   0  0  0  0  0  0  0  0  0  0  0  0
    3.3090    2.1400   -1.1167 C   0  0  0  0  0  0  0  0  0  0  0  0
    2.2470    1.3480   -0.6897 C   0  0  0  0  0  0  0  0  0  0  0  0
    1.6761   -1.9456    1.1019 C   0  0  0  0  0  0  0  0  0  0  0  0
    0.6128   -2.7354    1.5240 C   0  0  0  0  0  0  0  0  0  0  0  0
   -0.6881   -2.3193    1.2654 C   0  0  0  0  0  0  0  0  0  0  0  0
   -2.4714    0.1274   -0.9090 C   0  0  0  0  0  0  0  0  0  0  0  0
   -3.7401    0.6210   -1.2325 C   0  0  0  0  0  0  0  0  0  0  0  0
   -6.9711    0.3203   -0.2966 H   0  0  0  0  0  0  0  0  0  0  0  0
   -6.2769    1.9605   -0.2929 H   0  0  0  0  0  0  0  0  0  0  0  0
   -6.3302    1.0001   -1.7919 H   0  0  0  0  0  0  0  0  0  0  0  0
   -5.4353   -0.4717    1.5005 H   0  0  0  0  0  0  0  0  0  0  0  0
   -3.2191   -1.3255    2.0706 H   0  0  0  0  0  0  0  0  0  0  0  0
    6.7324   -0.1363   -0.9602 H   0  0  0  0  0  0  0  0  0  0  0  0
    6.7476    0.6949    0.6188 H   0  0  0  0  0  0  0  0  0  0  0  0
    6.1799   -0.9800    0.4976 H   0  0  0  0  0  0  0  0  0  0  0  0
    5.4513    2.3089   -1.2266 H   0  0  0  0  0  0  0  0  0  0  0  0
    3.1186    3.0874   -1.6123 H   0  0  0  0  0  0  0  0  0  0  0  0
    1.2251    1.6789   -0.8510 H   0  0  0  0  0  0  0  0  0  0  0  0
    2.6975   -2.2590    1.2981 H   0  0  0  0  0  0  0  0  0  0  0  0
    0.7991   -3.6692    2.0463 H   0  0  0  0  0  0  0  0  0  0  0  0
   -1.5205   -2.9415    1.5763 H   0  0  0  0  0  0  0  0  0  0  0  0
   -1.6458    0.3151   -1.5941 H   0  0  0  0  0  0  0  0  0  0  0  0
   -3.8694    1.1837   -2.1541 H   0  0  0  0  0  0  0  0  0  0  0  0
  1  2  1  0
  2  3  2  0
  3  4  1  0
  4  5  2  0
  5  6  1  0
  6  7  2  0
  7  8  1  0
  8  9  1  0
  9 10  2  0
 10 11  1  0
 11 12  1  0
 11 13  2  0
 13 14  1  0
 14 15  2  0
  8 16  2  0
 16 17  1  0
 17 18  2  0
  5 19  1  0
 19 20  2  0
 20  2  1  0
 18  6  1  0
 15  9  1  0
  1 21  1  0
  1 22  1  0
  1 23  1  0
  3 24  1  0
  4 25  1  0
 12 26  1  0
 12 27  1  0
 12 28  1  0
 13 29  1  0
 14 30  1  0
 15 31  1  0
 16 32  1  0
 17 33  1  0
 18 34  1  0
 19 35  1  0
 20 36  1  0
M  END
