
     RDKit          3D

 28 29  0  0  0  0  0  0  0  0999 V2000
    5.1129    0.2397   -0.0423 C   0  0  0  0  0  0  0  0  0  0  0  0
    3.6241    0.1416    0.1078 C   0  0  0  0  0  0  0  0  0  0  0  0
    3.0000    0.5526    1.2880 C   0  0  0  0  0  0  0  0  0  0  0  0
    1.6066    0.4921    1.4155 C   0  0  0  0  0  0  0  0  0  0  0  0
    0.7934    0.0253    0.3671 C   0  0  0  0  0  0  0  0  0  0  0  0
   -0.6764   -0.0533    0.4848 C   0  0  0  0  0  0  0  0  0  0  0  0
   -1.3837    0.1031   -0.6671 N   0  0  0  0  0  0  0  0  0  0  0  0
   -2.7270    0.0392   -0.5817 C   0  0  0  0  0  0  0  0  0  0  0  0
   -3.4112    0.2262   -1.7831 N   0  0  0  0  0  0  0  0  0  0  0  0
   -3.3781   -0.1742    0.6409 C   0  0  0  0  0  0  0  0  0  0  0  0
   -2.6887   -0.3544    1.7961 N   0  0  0  0  0  0  0  0  0  0  0  0
   -1.3399   -0.2885    1.6865 C   0  0  0  0  0  0  0  0  0  0  0  0
   -4.8729   -0.2088    0.7338 C   0  0  0  0  0  0  0  0  0  0  0  0
    1.4395   -0.3595   -0.8217 C   0  0  0  0  0  0  0  0  0  0  0  0
    2.8315   -0.3014   -0.9530 C   0  0  0  0  0  0  0  0  0  0  0  0
    5.6129    0.0939    0.9210 H   0  0  0  0  0  0  0  0  0  0  0  0
    5.4885   -0.5318   -0.7227 H   0  0  0  0  0  0  0  0  0  0  0  0
    5.3853    1.2232   -0.4374 H   0  0  0  0  0  0  0  0  0  0  0  0
    3.5929    0.9304    2.1184 H   0  0  0  0  0  0  0  0  0  0  0  0
    1.1678    0.8413    2.3477 H   0  0  0  0  0  0  0  0  0  0  0  0
   -2.7043    0.3270   -2.5082 H   0  0  0  0  0  0  0  0  0  0  0  0
   -4.0396   -0.5442   -1.9791 H   0  0  0  0  0  0  0  0  0  0  0  0
   -0.8042   -0.4476    2.6159 H   0  0  0  0  0  0  0  0  0  0  0  0
   -5.2735   -1.0321    0.1344 H   0  0  0  0  0  0  0  0  0  0  0  0
   -5.2996    0.7364    0.3841 H   0  0  0  0  0  0  0  0  0  0  0  0
   -5.1942   -0.3594    1.7698 H   0  0  0  0  0  0  0  0  0  0  0  0
    0.8508   -0.7129   -1.6673 H   0  0  0  0  0  0  0  0  0  0  0  0
    3.2874   -0.6040   -1.8931 H   0  0  0  0  0  0  0  0  0  0  0  0
  1  2  1  0
  2  3  2  0
  3  4  1  0
  4  5  2  0
  5  6  1  0
  6  7  2  0
  7  8  1  0
  8  9  1  0
  8 10  2  0
 10 11  1  0
 11 12  2  0
 10 13  1  0
  5 14  1  0
 14 15  2  0
 15  2  1  0
 12  6  1  0
  1 16  1  0
  1 17  1  0
  1 18  1  0
  3 19  1  0
  4 20  1  0
  9 21  1  0
  9 22  1  0
 12 23  1  0
 13 24  1  0
 13 25  1  0
 13 26  1  0
 14 27  1  0
 15 28  1  0
M  END
