
     RDKit          3D

 35 36  0  0  0  0  0  0  0  0999 V2000
   -2.8325   -2.8665   -0.6466 C   0  0  0  0  0  0  0  0  0  0  0  0
   -1.6382   -2.1372   -0.1329 C   0  0  0  0  0  0  0  0  0  0  0  0
   -0.5038   -2.7100    0.3004 C   0  0  0  0  0  0  0  0  0  0  0  0
    0.6365   -1.9648    0.7971 C   0  0  0  0  0  0  0  0  0  0  0  0
    0.6910   -0.6256    0.8807 C   0  0  0  0  0  0  0  0  0  0  0  0
    1.7287    0.1615    1.3474 N   0  0  0  0  0  0  0  0  0  0  0  0
    3.1339   -0.1932    1.4045 C   0  0  0  0  0  0  0  0  0  0  0  0
    3.7797   -0.1905    0.0192 C   0  0  0  0  0  0  0  0  0  0  0  0
    3.8172    1.1919   -0.6173 C   0  0  0  0  0  0  0  0  0  0  0  0
   -0.5252    0.0925    0.4120 C   0  0  0  0  0  0  0  0  0  0  0  0
   -0.7208    1.3702    0.3663 N   0  0  0  0  0  0  0  0  0  0  0  0
   -2.0969    1.4690   -0.1850 C   0  0  0  0  0  0  0  0  0  0  0  0
   -2.0453    2.2511   -1.4949 C   0  0  0  0  0  0  0  0  0  0  0  0
   -2.9889    2.1642    0.8401 C   0  0  0  0  0  0  0  0  0  0  0  0
   -2.6461    0.1153   -0.4581 N   0  0  0  0  0  0  0  0  0  0  0  0
   -1.6880   -0.6666   -0.0926 C   0  0  0  0  0  0  0  0  0  0  0  0
   -3.0457   -2.5751   -1.6802 H   0  0  0  0  0  0  0  0  0  0  0  0
   -2.6819   -3.9511   -0.6310 H   0  0  0  0  0  0  0  0  0  0  0  0
   -3.7118   -2.6438   -0.0336 H   0  0  0  0  0  0  0  0  0  0  0  0
   -0.4031   -3.7932    0.2968 H   0  0  0  0  0  0  0  0  0  0  0  0
    1.4817   -2.5612    1.1282 H   0  0  0  0  0  0  0  0  0  0  0  0
    1.5404    1.1544    1.1774 H   0  0  0  0  0  0  0  0  0  0  0  0
    3.6492    0.5227    2.0549 H   0  0  0  0  0  0  0  0  0  0  0  0
    3.2574   -1.1778    1.8693 H   0  0  0  0  0  0  0  0  0  0  0  0
    4.8083   -0.5582    0.1130 H   0  0  0  0  0  0  0  0  0  0  0  0
    3.2548   -0.8811   -0.6508 H   0  0  0  0  0  0  0  0  0  0  0  0
    2.8090    1.5707   -0.8115 H   0  0  0  0  0  0  0  0  0  0  0  0
    4.3367    1.9072    0.0281 H   0  0  0  0  0  0  0  0  0  0  0  0
    4.3482    1.1510   -1.5737 H   0  0  0  0  0  0  0  0  0  0  0  0
   -3.0420    2.3451   -1.9398 H   0  0  0  0  0  0  0  0  0  0  0  0
   -1.4035    1.7485   -2.2278 H   0  0  0  0  0  0  0  0  0  0  0  0
   -1.6418    3.2577   -1.3398 H   0  0  0  0  0  0  0  0  0  0  0  0
   -3.0231    1.5994    1.7790 H   0  0  0  0  0  0  0  0  0  0  0  0
   -2.6168    3.1679    1.0733 H   0  0  0  0  0  0  0  0  0  0  0  0
   -4.0172    2.2554    0.4734 H   0  0  0  0  0  0  0  0  0  0  0  0
  1  2  1  0
  2  3  2  0
  3  4  1  0
  4  5  2  0
  5  6  1  0
  6  7  1  0
  7  8  1  0
  8  9  1  0
  5 10  1  0
 10 11  2  0
 11 12  1  0
 12 13  1  0
 12 14  1  0
 12 15  1  0
 15 16  2  0
 16  2  1  0
 16 10  1  0
  1 17  1  0
  1 18  1  0
  1 19  1  0
  3 20  1  0
  4 21  1  0
  6 22  1  0
  7 23  1  0
  7 24  1  0
  8 25  1  0
  8 26  1  0
  9 27  1  0
  9 28  1  0
  9 29  1  0
 13 30  1  0
 13 31  1  0
 13 32  1  0
 14 33  1  0
 14 34  1  0
 14 35  1  0
M  END
