
     RDKit          3D

 40 44  0  0  0  0  0  0  0  0999 V2000
    5.2521   -1.6713    0.2710 C   0  0  0  0  0  0  0  0  0  0  0  0
    4.1391   -0.6867    0.3868 C   0  0  0  0  0  0  0  0  0  0  0  0
    4.2859    0.6158    0.7909 C   0  0  0  0  0  0  0  0  0  0  0  0
    2.9855    1.2535    0.7791 C   0  0  0  0  0  0  0  0  0  0  0  0
    2.4321    2.4399    1.0507 C   0  0  0  0  0  0  0  0  0  0  0  0
    0.9626    2.5342    0.8792 C   0  0  0  0  0  0  0  0  0  0  0  0
    0.1724    1.5007    0.4469 C   0  0  0  0  0  0  0  0  0  0  0  0
   -1.2833    1.7428    0.3930 C   0  0  0  0  0  0  0  0  0  0  0  0
   -1.8212    2.7050   -0.4741 C   0  0  0  0  0  0  0  0  0  0  0  0
   -3.2002    2.9198   -0.5245 C   0  0  0  0  0  0  0  0  0  0  0  0
   -4.0522    2.1751    0.2893 C   0  0  0  0  0  0  0  0  0  0  0  0
   -3.5280    1.2157    1.1538 C   0  0  0  0  0  0  0  0  0  0  0  0
   -2.1494    1.0010    1.2071 C   0  0  0  0  0  0  0  0  0  0  0  0
    0.8180    0.2502    0.1443 C   0  0  0  0  0  0  0  0  0  0  0  0
    0.6382   -1.0613   -0.2955 C   0  0  0  0  0  0  0  0  0  0  0  0
   -0.6065   -1.6891   -0.6964 C   0  0  0  0  0  0  0  0  0  0  0  0
   -1.5047   -1.0540   -1.5614 C   0  0  0  0  0  0  0  0  0  0  0  0
   -2.6969   -1.6826   -1.9298 C   0  0  0  0  0  0  0  0  0  0  0  0
   -2.9918   -2.9575   -1.4497 C   0  0  0  0  0  0  0  0  0  0  0  0
   -2.0928   -3.6085   -0.6068 C   0  0  0  0  0  0  0  0  0  0  0  0
   -0.9027   -2.9784   -0.2360 C   0  0  0  0  0  0  0  0  0  0  0  0
    1.8592   -1.7853   -0.2874 N   0  0  0  0  0  0  0  0  0  0  0  0
    2.7498   -0.9088    0.1046 C   0  0  0  0  0  0  0  0  0  0  0  0
    2.1512    0.2661    0.3549 N   0  0  0  0  0  0  0  0  0  0  0  0
    6.2143   -1.2295    0.5497 H   0  0  0  0  0  0  0  0  0  0  0  0
    5.0711   -2.5286    0.9271 H   0  0  0  0  0  0  0  0  0  0  0  0
    5.3326   -2.0348   -0.7584 H   0  0  0  0  0  0  0  0  0  0  0  0
    5.2064    1.1003    1.0769 H   0  0  0  0  0  0  0  0  0  0  0  0
    2.9921    3.2985    1.3984 H   0  0  0  0  0  0  0  0  0  0  0  0
    0.5264    3.4934    1.1525 H   0  0  0  0  0  0  0  0  0  0  0  0
   -1.1699    3.2846   -1.1243 H   0  0  0  0  0  0  0  0  0  0  0  0
   -3.6095    3.6645   -1.2021 H   0  0  0  0  0  0  0  0  0  0  0  0
   -5.1259    2.3388    0.2472 H   0  0  0  0  0  0  0  0  0  0  0  0
   -4.1914    0.6284    1.7833 H   0  0  0  0  0  0  0  0  0  0  0  0
   -1.7557    0.2429    1.8810 H   0  0  0  0  0  0  0  0  0  0  0  0
   -1.2837   -0.0681   -1.9613 H   0  0  0  0  0  0  0  0  0  0  0  0
   -3.3915   -1.1760   -2.5944 H   0  0  0  0  0  0  0  0  0  0  0  0
   -3.9177   -3.4470   -1.7395 H   0  0  0  0  0  0  0  0  0  0  0  0
   -2.3130   -4.6075   -0.2407 H   0  0  0  0  0  0  0  0  0  0  0  0
   -0.2010   -3.4964    0.4148 H   0  0  0  0  0  0  0  0  0  0  0  0
  1  2  1  0
  2  3  2  0
  3  4  1  0
  4  5  2  0
  5  6  1  0
  6  7  2  0
  7  8  1  0
  8  9  2  0
  9 10  1  0
 10 11  2  0
 11 12  1  0
 12 13  2  0
  7 14  1  0
 14 15  2  0
 15 16  1  0
 16 17  2  0
 17 18  1  0
 18 19  2  0
 19 20  1  0
 20 21  2  0
 15 22  1  0
 22 23  2  0
 23 24  1  0
 23  2  1  0
 24  4  1  0
 13  8  1  0
 24 14  1  0
 21 16  1  0
  1 25  1  0
  1 26  1  0
  1 27  1  0
  3 28  1  0
  5 29  1  0
  6 30  1  0
  9 31  1  0
 10 32  1  0
 11 33  1  0
 12 34  1  0
 13 35  1  0
 17 36  1  0
 18 37  1  0
 19 38  1  0
 20 39  1  0
 21 40  1  0
M  END
