
     RDKit          3D

 17 18  0  0  0  0  0  0  0  0999 V2000
    3.2744   -0.1021    0.0478 C   0  0  0  0  0  0  0  0  0  0  0  0
    1.8082    0.0662    0.0631 C   0  0  0  0  0  0  0  0  0  0  0  0
    1.1030    1.1390    0.3674 N   0  0  0  0  0  0  0  0  0  0  0  0
   -0.1959    0.7241    0.2121 C   0  0  0  0  0  0  0  0  0  0  0  0
   -1.4088    1.4027    0.3861 C   0  0  0  0  0  0  0  0  0  0  0  0
   -2.6003    0.7000    0.1473 C   0  0  0  0  0  0  0  0  0  0  0  0
   -2.5818   -0.6424   -0.2541 C   0  0  0  0  0  0  0  0  0  0  0  0
   -1.3770   -1.3340   -0.4323 C   0  0  0  0  0  0  0  0  0  0  0  0
   -0.2215   -0.6029   -0.1858 C   0  0  0  0  0  0  0  0  0  0  0  0
    1.0692   -1.0344   -0.2840 O   0  0  0  0  0  0  0  0  0  0  0  0
    3.7730    0.8274    0.3380 H   0  0  0  0  0  0  0  0  0  0  0  0
    3.6177   -0.3771   -0.9538 H   0  0  0  0  0  0  0  0  0  0  0  0
    3.5770   -0.8864    0.7479 H   0  0  0  0  0  0  0  0  0  0  0  0
   -1.4185    2.4412    0.6968 H   0  0  0  0  0  0  0  0  0  0  0  0
   -3.5536    1.2088    0.2767 H   0  0  0  0  0  0  0  0  0  0  0  0
   -3.5233   -1.1595   -0.4314 H   0  0  0  0  0  0  0  0  0  0  0  0
   -1.3418   -2.3706   -0.7417 H   0  0  0  0  0  0  0  0  0  0  0  0
  1  2  1  0
  2  3  2  0
  3  4  1  0
  4  5  2  0
  5  6  1  0
  6  7  2  0
  7  8  1  0
  8  9  2  0
  9 10  1  0
 10  2  1  0
  9  4  1  0
  1 11  1  0
  1 12  1  0
  1 13  1  0
  5 14  1  0
  6 15  1  0
  7 16  1  0
  8 17  1  0
M  END
