
     RDKit          3D

 44 50  0  0  0  0  0  0  0  0999 V2000
    6.2609   -2.3609    0.0764 Si  0  0  0  0  0  4  0  0  0  0  0  0
    7.2105   -0.7483    0.0533 C   0  0  0  0  0  0  0  0  0  0  0  0
    6.3707    0.2986    0.1535 C   0  0  0  0  0  0  0  0  0  0  0  0
    6.7729    1.6894    0.1774 C   0  0  0  0  0  0  0  0  0  0  0  0
    5.8229    2.6352    0.2929 C   0  0  0  0  0  0  0  0  0  0  0  0
    4.4025    2.3021    0.3888 C   0  0  0  0  0  0  0  0  0  0  0  0
    3.9369    1.0288    0.3647 C   0  0  0  0  0  0  0  0  0  0  0  0
    2.5212    0.8500    0.4619 C   0  0  0  0  0  0  0  0  0  0  0  0
    1.6908    1.0273    1.5613 C   0  0  0  0  0  0  0  0  0  0  0  0
    0.3246    0.7561    1.2733 C   0  0  0  0  0  0  0  0  0  0  0  0
   -0.7311    0.8317    2.1234 N   0  0  0  0  0  0  0  0  0  0  0  0
   -1.9853    0.5364    1.6875 C   0  0  0  0  0  0  0  0  0  0  0  0
   -2.2949    0.1444    0.3792 C   0  0  0  0  0  0  0  0  0  0  0  0
   -1.2414    0.0592   -0.5087 C   0  0  0  0  0  0  0  0  0  0  0  0
   -1.6440   -0.3250   -1.7380 O   0  0  0  0  0  0  0  0  0  0  0  0
   -2.9911   -0.4970   -1.6602 C   0  0  0  0  0  0  0  0  0  0  0  0
   -3.7884   -0.8948   -2.7284 C   0  0  0  0  0  0  0  0  0  0  0  0
   -5.1557   -1.0244   -2.4800 C   0  0  0  0  0  0  0  0  0  0  0  0
   -5.7017   -0.7666   -1.2146 C   0  0  0  0  0  0  0  0  0  0  0  0
   -7.0805   -0.9056   -0.9948 C   0  0  0  0  0  0  0  0  0  0  0  0
   -7.6365   -0.6520    0.2599 C   0  0  0  0  0  0  0  0  0  0  0  0
   -6.8228   -0.2552    1.3160 C   0  0  0  0  0  0  0  0  0  0  0  0
   -5.4477   -0.1093    1.1242 C   0  0  0  0  0  0  0  0  0  0  0  0
   -4.8650   -0.3606   -0.1367 C   0  0  0  0  0  0  0  0  0  0  0  0
   -3.4609   -0.2226   -0.3740 C   0  0  0  0  0  0  0  0  0  0  0  0
    0.1791    0.3871   -0.0387 C   0  0  0  0  0  0  0  0  0  0  0  0
    1.6060    0.3577   -0.9221 S   0  0  0  0  0  0  0  0  0  0  0  0
    4.9311   -0.0485    0.2520 C   0  0  0  0  0  0  0  0  0  0  0  0
    4.6806   -1.3742    0.2376 C   0  0  0  0  0  0  0  0  0  0  0  0
    6.3517   -3.0866   -1.2135 H   0  0  0  0  0  0  0  0  0  0  0  0
    6.5528   -3.1673    1.2861 H   0  0  0  0  0  0  0  0  0  0  0  0
    8.2852   -0.7243   -0.0262 H   0  0  0  0  0  0  0  0  0  0  0  0
    7.8233    1.9468    0.1047 H   0  0  0  0  0  0  0  0  0  0  0  0
    6.0913    3.6871    0.3137 H   0  0  0  0  0  0  0  0  0  0  0  0
    3.7240    3.1482    0.4693 H   0  0  0  0  0  0  0  0  0  0  0  0
    2.0502    1.3338    2.5352 H   0  0  0  0  0  0  0  0  0  0  0  0
   -2.7478    0.6310    2.4534 H   0  0  0  0  0  0  0  0  0  0  0  0
   -3.3621   -1.0929   -3.7049 H   0  0  0  0  0  0  0  0  0  0  0  0
   -5.8007   -1.3346   -3.3008 H   0  0  0  0  0  0  0  0  0  0  0  0
   -7.7393   -1.2147   -1.8039 H   0  0  0  0  0  0  0  0  0  0  0  0
   -8.7072   -0.7651    0.4112 H   0  0  0  0  0  0  0  0  0  0  0  0
   -7.2587   -0.0583    2.2924 H   0  0  0  0  0  0  0  0  0  0  0  0
   -4.8486    0.2015    1.9718 H   0  0  0  0  0  0  0  0  0  0  0  0
    3.7221   -1.8635    0.3036 H   0  0  0  0  0  0  0  0  0  0  0  0
  1  2  1  0
  2  3  2  0
  3  4  1  0
  4  5  2  0
  5  6  1  0
  6  7  2  0
  7  8  1  0
  8  9  2  0
  9 10  1  0
 10 11  2  0
 11 12  1  0
 12 13  2  0
 13 14  1  0
 14 15  1  0
 15 16  1  0
 16 17  2  0
 17 18  1  0
 18 19  2  0
 19 20  1  0
 20 21  2  0
 21 22  1  0
 22 23  2  0
 23 24  1  0
 24 25  2  0
 14 26  2  0
 26 27  1  0
  7 28  1  0
 28 29  2  0
 29  1  1  0
 28  3  1  0
 27  8  1  0
 26 10  1  0
 25 13  1  0
 25 16  1  0
 24 19  1  0
  1 30  1  0
  1 31  1  0
  2 32  1  0
  4 33  1  0
  5 34  1  0
  6 35  1  0
  9 36  1  0
 12 37  1  0
 17 38  1  0
 18 39  1  0
 20 40  1  0
 21 41  1  0
 22 42  1  0
 23 43  1  0
 29 44  1  0
M  END
