
     RDKit          3D

 37 39  0  0  0  0  0  0  0  0999 V2000
    0.7244    1.7795    0.2986 C   0  0  0  0  0  0  0  0  0  0  0  0
    0.7390    0.3220    0.6459 C   0  0  0  0  0  0  0  0  0  0  0  0
    1.8479   -0.5096    0.5436 C   0  0  0  0  0  0  0  0  0  0  0  0
    3.2124   -0.1872    0.1165 C   0  0  0  0  0  0  0  0  0  0  0  0
    3.9834    0.7209    0.8550 C   0  0  0  0  0  0  0  0  0  0  0  0
    5.2797    1.0441    0.4485 C   0  0  0  0  0  0  0  0  0  0  0  0
    5.8154    0.4641   -0.7001 C   0  0  0  0  0  0  0  0  0  0  0  0
    5.0571   -0.4391   -1.4431 C   0  0  0  0  0  0  0  0  0  0  0  0
    3.7605   -0.7635   -1.0376 C   0  0  0  0  0  0  0  0  0  0  0  0
    1.4946   -2.1122    1.0370 S   0  0  0  0  0  0  0  0  0  0  0  0
   -0.1051   -1.7100    1.4128 C   0  0  0  0  0  0  0  0  0  0  0  0
   -1.3121   -3.0029    2.1577 Br  0  0  0  0  0  0  0  0  0  0  0  0
   -0.4193   -0.3975    1.1407 C   0  0  0  0  0  0  0  0  0  0  0  0
   -1.7304    0.1932    1.3787 C   0  0  0  0  0  0  0  0  0  0  0  0
   -1.9171    0.9269    2.3452 O   0  0  0  0  0  0  0  0  0  0  0  0
   -2.7246   -0.0876    0.4499 N   0  0  0  0  0  0  0  0  0  0  0  0
   -2.5310   -0.8059   -0.8151 C   0  0  0  0  0  0  0  0  0  0  0  0
   -3.5510   -0.3496   -1.8635 C   0  0  0  0  0  0  0  0  0  0  0  0
   -4.9135   -0.5251   -1.4534 O   0  0  0  0  0  0  0  0  0  0  0  0
   -5.1167   -0.4360   -0.0353 C   0  0  0  0  0  0  0  0  0  0  0  0
   -4.0741    0.4236    0.6833 C   0  0  0  0  0  0  0  0  0  0  0  0
    1.0111    2.3753    1.1709 H   0  0  0  0  0  0  0  0  0  0  0  0
    1.4178    2.0015   -0.5188 H   0  0  0  0  0  0  0  0  0  0  0  0
   -0.2701    2.1006   -0.0268 H   0  0  0  0  0  0  0  0  0  0  0  0
    3.5806    1.1757    1.7574 H   0  0  0  0  0  0  0  0  0  0  0  0
    5.8716    1.7460    1.0304 H   0  0  0  0  0  0  0  0  0  0  0  0
    6.8253    0.7146   -1.0151 H   0  0  0  0  0  0  0  0  0  0  0  0
    5.4749   -0.8922   -2.3385 H   0  0  0  0  0  0  0  0  0  0  0  0
    3.1802   -1.4665   -1.6306 H   0  0  0  0  0  0  0  0  0  0  0  0
   -1.5154   -0.6570   -1.1915 H   0  0  0  0  0  0  0  0  0  0  0  0
   -2.6732   -1.8704   -0.5992 H   0  0  0  0  0  0  0  0  0  0  0  0
   -3.4122   -0.9073   -2.7950 H   0  0  0  0  0  0  0  0  0  0  0  0
   -3.4092    0.7129   -2.0937 H   0  0  0  0  0  0  0  0  0  0  0  0
   -6.1208   -0.0329    0.1294 H   0  0  0  0  0  0  0  0  0  0  0  0
   -5.1038   -1.4576    0.3621 H   0  0  0  0  0  0  0  0  0  0  0  0
   -4.0940    1.4484    0.2945 H   0  0  0  0  0  0  0  0  0  0  0  0
   -4.2823    0.4606    1.7577 H   0  0  0  0  0  0  0  0  0  0  0  0
  1  2  1  0
  2  3  2  0
  3  4  1  0
  4  5  2  0
  5  6  1  0
  6  7  2  0
  7  8  1  0
  8  9  2  0
  3 10  1  0
 10 11  1  0
 11 12  1  0
 11 13  2  0
 13 14  1  0
 14 15  2  0
 14 16  1  0
 16 17  1  0
 17 18  1  0
 18 19  1  0
 19 20  1  0
 20 21  1  0
 13  2  1  0
 21 16  1  0
  9  4  1  0
  1 22  1  0
  1 23  1  0
  1 24  1  0
  5 25  1  0
  6 26  1  0
  7 27  1  0
  8 28  1  0
  9 29  1  0
 17 30  1  0
 17 31  1  0
 18 32  1  0
 18 33  1  0
 20 34  1  0
 20 35  1  0
 21 36  1  0
 21 37  1  0
M  END
