
     RDKit          3D

 28 29  0  0  0  0  0  0  0  0999 V2000
   -3.8321   -1.1632   -0.8927 C   0  0  0  0  0  0  0  0  0  0  0  0
   -2.8172   -0.6659    0.0890 C   0  0  0  0  0  0  0  0  0  0  0  0
   -2.9945    0.4390    0.8271 C   0  0  0  0  0  0  0  0  0  0  0  0
   -1.9196    0.8609    1.7726 C   0  0  0  0  0  0  0  0  0  0  0  0
   -2.0793    1.8986    2.4070 O   0  0  0  0  0  0  0  0  0  0  0  0
   -0.7920    0.0766    1.8874 N   0  0  0  0  0  0  0  0  0  0  0  0
   -0.7020   -0.9654    1.1314 C   0  0  0  0  0  0  0  0  0  0  0  0
    0.7039   -1.9972    1.2175 S   0  0  0  0  0  0  0  0  0  0  0  0
    2.0083   -0.7463    1.3955 C   0  0  0  0  0  0  0  0  0  0  0  0
    2.2247    0.0530    0.1335 C   0  0  0  0  0  0  0  0  0  0  0  0
    1.7583    1.3743    0.0367 C   0  0  0  0  0  0  0  0  0  0  0  0
    1.9442    2.1134   -1.1348 C   0  0  0  0  0  0  0  0  0  0  0  0
    2.5985    1.5396   -2.2226 C   0  0  0  0  0  0  0  0  0  0  0  0
    3.0608    0.2326   -2.1300 C   0  0  0  0  0  0  0  0  0  0  0  0
    3.6870   -0.3207   -3.1770 F   0  0  0  0  0  0  0  0  0  0  0  0
    2.8818   -0.5128   -0.9688 C   0  0  0  0  0  0  0  0  0  0  0  0
   -1.6515   -1.3696    0.2437 N   0  0  0  0  0  0  0  0  0  0  0  0
   -3.4030   -1.1968   -1.8995 H   0  0  0  0  0  0  0  0  0  0  0  0
   -4.7177   -0.5199   -0.9269 H   0  0  0  0  0  0  0  0  0  0  0  0
   -4.1608   -2.1722   -0.6226 H   0  0  0  0  0  0  0  0  0  0  0  0
   -3.8739    1.0666    0.7817 H   0  0  0  0  0  0  0  0  0  0  0  0
    2.9410   -1.2669    1.6431 H   0  0  0  0  0  0  0  0  0  0  0  0
    1.7999   -0.0916    2.2488 H   0  0  0  0  0  0  0  0  0  0  0  0
    1.2416    1.8373    0.8774 H   0  0  0  0  0  0  0  0  0  0  0  0
    1.5779    3.1354   -1.1947 H   0  0  0  0  0  0  0  0  0  0  0  0
    2.7509    2.1009   -3.1385 H   0  0  0  0  0  0  0  0  0  0  0  0
    3.2556   -1.5323   -0.9359 H   0  0  0  0  0  0  0  0  0  0  0  0
   -1.4909   -2.2074   -0.3010 H   0  0  0  0  0  0  0  0  0  0  0  0
  1  2  1  0
  2  3  2  0
  3  4  1  0
  4  5  2  0
  4  6  1  0
  6  7  2  0
  7  8  1  0
  8  9  1  0
  9 10  1  0
 10 11  2  0
 11 12  1  0
 12 13  2  0
 13 14  1  0
 14 15  1  0
 14 16  2  0
  7 17  1  0
 17  2  1  0
 16 10  1  0
  1 18  1  0
  1 19  1  0
  1 20  1  0
  3 21  1  0
  9 22  1  0
  9 23  1  0
 11 24  1  0
 12 25  1  0
 13 26  1  0
 16 27  1  0
 17 28  1  0
M  END
