
     RDKit          3D

 41 44  0  0  0  0  0  0  0  0999 V2000
   -5.3691   -0.0663    1.7807 C   0  0  0  0  0  0  0  0  0  0  0  0
   -3.9850   -0.3035    1.2971 C   0  0  0  0  0  0  0  0  0  0  0  0
   -3.1587   -1.3864    1.5072 C   0  0  0  0  0  0  0  0  0  0  0  0
   -1.9292   -1.1730    0.8079 C   0  0  0  0  0  0  0  0  0  0  0  0
   -0.8021   -2.1243    0.8233 C   0  0  0  0  0  0  0  0  0  0  0  0
   -0.9888   -3.2691    1.2394 O   0  0  0  0  0  0  0  0  0  0  0  0
    0.5531   -1.6652    0.3154 C   0  0  0  0  0  0  0  0  0  0  0  0
    1.9139   -2.6743    0.9711 S   0  0  0  0  0  0  0  0  0  0  0  0
    3.2538   -1.9338    0.1460 C   0  0  0  0  0  0  0  0  0  0  0  0
    3.1403   -0.8688   -0.6277 N   0  0  0  0  0  0  0  0  0  0  0  0
    4.4220   -0.6420   -1.0615 C   0  0  0  0  0  0  0  0  0  0  0  0
    4.9499    0.3421   -1.9067 C   0  0  0  0  0  0  0  0  0  0  0  0
    6.3284    0.3161   -2.1702 C   0  0  0  0  0  0  0  0  0  0  0  0
    7.1562   -0.6630   -1.6050 C   0  0  0  0  0  0  0  0  0  0  0  0
    6.6424   -1.6522   -0.7576 C   0  0  0  0  0  0  0  0  0  0  0  0
    5.2744   -1.5910   -0.5237 C   0  0  0  0  0  0  0  0  0  0  0  0
    4.5298   -2.4245    0.2549 O   0  0  0  0  0  0  0  0  0  0  0  0
   -2.0685    0.0427    0.1344 C   0  0  0  0  0  0  0  0  0  0  0  0
   -1.1814    0.7376   -0.8422 C   0  0  0  0  0  0  0  0  0  0  0  0
   -3.2769    0.5799    0.5272 N   0  0  0  0  0  0  0  0  0  0  0  0
   -3.7901    1.9091    0.1064 C   0  0  0  0  0  0  0  0  0  0  0  0
   -3.0060    3.1861    0.3171 C   0  0  0  0  0  0  0  0  0  0  0  0
   -4.2567    2.9484    1.1018 C   0  0  0  0  0  0  0  0  0  0  0  0
   -5.8216   -1.0012    2.1288 H   0  0  0  0  0  0  0  0  0  0  0  0
   -5.3704    0.6367    2.6190 H   0  0  0  0  0  0  0  0  0  0  0  0
   -6.0068    0.3300    0.9839 H   0  0  0  0  0  0  0  0  0  0  0  0
   -3.4026   -2.2605    2.1010 H   0  0  0  0  0  0  0  0  0  0  0  0
    0.7253   -0.6335    0.6338 H   0  0  0  0  0  0  0  0  0  0  0  0
    0.5468   -1.7336   -0.7763 H   0  0  0  0  0  0  0  0  0  0  0  0
    4.3082    1.1002   -2.3419 H   0  0  0  0  0  0  0  0  0  0  0  0
    6.7607    1.0719   -2.8237 H   0  0  0  0  0  0  0  0  0  0  0  0
    8.2221   -0.6551   -1.8283 H   0  0  0  0  0  0  0  0  0  0  0  0
    7.2661   -2.4147   -0.3084 H   0  0  0  0  0  0  0  0  0  0  0  0
   -0.6835    0.0187   -1.4982 H   0  0  0  0  0  0  0  0  0  0  0  0
   -0.4196    1.3216   -0.3178 H   0  0  0  0  0  0  0  0  0  0  0  0
   -1.7378    1.4091   -1.5031 H   0  0  0  0  0  0  0  0  0  0  0  0
   -4.3584    1.8363   -0.8170 H   0  0  0  0  0  0  0  0  0  0  0  0
   -2.0653    3.1412    0.8545 H   0  0  0  0  0  0  0  0  0  0  0  0
   -3.0320    3.9317   -0.4685 H   0  0  0  0  0  0  0  0  0  0  0  0
   -4.1465    2.7468    2.1615 H   0  0  0  0  0  0  0  0  0  0  0  0
   -5.1365    3.5296    0.8504 H   0  0  0  0  0  0  0  0  0  0  0  0
  1  2  1  0
  2  3  2  0
  3  4  1  0
  4  5  1  0
  5  6  2  0
  5  7  1  0
  7  8  1  0
  8  9  1  0
  9 10  2  0
 10 11  1  0
 11 12  2  0
 12 13  1  0
 13 14  2  0
 14 15  1  0
 15 16  2  0
 16 17  1  0
  4 18  2  0
 18 19  1  0
 18 20  1  0
 20 21  1  0
 21 22  1  0
 22 23  1  0
 20  2  1  0
 23 21  1  0
 17  9  1  0
 16 11  1  0
  1 24  1  0
  1 25  1  0
  1 26  1  0
  3 27  1  0
  7 28  1  0
  7 29  1  0
 12 30  1  0
 13 31  1  0
 14 32  1  0
 15 33  1  0
 19 34  1  0
 19 35  1  0
 19 36  1  0
 21 37  1  0
 22 38  1  0
 22 39  1  0
 23 40  1  0
 23 41  1  0
M  END
