
     RDKit          3D

 36 38  0  0  0  0  0  0  0  0999 V2000
    6.6865   -0.4221   -0.4574 C   0  0  0  0  0  0  0  0  0  0  0  0
    5.2595   -0.2102   -0.1621 C   0  0  0  0  0  0  0  0  0  0  0  0
    4.3886   -0.7053    0.7732 C   0  0  0  0  0  0  0  0  0  0  0  0
    3.1440   -0.0753    0.4882 C   0  0  0  0  0  0  0  0  0  0  0  0
    1.8987   -0.2615    1.2532 C   0  0  0  0  0  0  0  0  0  0  0  0
    1.9511   -0.7851    2.3690 O   0  0  0  0  0  0  0  0  0  0  0  0
    0.6743    0.1534    0.7242 N   0  0  0  0  0  0  0  0  0  0  0  0
    0.4318    0.5643   -0.6672 C   0  0  0  0  0  0  0  0  0  0  0  0
   -1.0223    0.3225   -1.1202 C   0  0  0  0  0  0  0  0  0  0  0  0
   -2.0161    0.9534   -0.2180 N   0  0  0  0  0  0  0  0  0  0  0  0
   -3.2523    0.2751   -0.2866 C   0  0  0  0  0  0  0  0  0  0  0  0
   -3.9735    0.2977   -1.4832 C   0  0  0  0  0  0  0  0  0  0  0  0
   -5.1904   -0.3753   -1.5752 C   0  0  0  0  0  0  0  0  0  0  0  0
   -5.6680   -1.0595   -0.4688 C   0  0  0  0  0  0  0  0  0  0  0  0
   -4.9042   -1.0344    0.6829 C   0  0  0  0  0  0  0  0  0  0  0  0
   -3.7212   -0.3884    0.7924 N   0  0  0  0  0  0  0  0  0  0  0  0
   -1.5413    1.1878    1.1644 C   0  0  0  0  0  0  0  0  0  0  0  0
   -0.5045    0.1433    1.6012 C   0  0  0  0  0  0  0  0  0  0  0  0
    3.2858    0.7706   -0.5474 N   0  0  0  0  0  0  0  0  0  0  0  0
    4.6004    0.6706   -0.9572 O   0  0  0  0  0  0  0  0  0  0  0  0
    7.1263   -1.1502    0.2311 H   0  0  0  0  0  0  0  0  0  0  0  0
    6.8158   -0.7972   -1.4773 H   0  0  0  0  0  0  0  0  0  0  0  0
    7.2417    0.5159   -0.3611 H   0  0  0  0  0  0  0  0  0  0  0  0
    4.5967   -1.4154    1.5603 H   0  0  0  0  0  0  0  0  0  0  0  0
    1.0930    0.0095   -1.3387 H   0  0  0  0  0  0  0  0  0  0  0  0
    0.6695    1.6322   -0.7343 H   0  0  0  0  0  0  0  0  0  0  0  0
   -1.1468    0.7183   -2.1351 H   0  0  0  0  0  0  0  0  0  0  0  0
   -1.1783   -0.7651   -1.1630 H   0  0  0  0  0  0  0  0  0  0  0  0
   -3.5998    0.8550   -2.3355 H   0  0  0  0  0  0  0  0  0  0  0  0
   -5.7579   -0.3559   -2.5006 H   0  0  0  0  0  0  0  0  0  0  0  0
   -6.6111   -1.5924   -0.4994 H   0  0  0  0  0  0  0  0  0  0  0  0
   -5.2313   -1.5493    1.5815 H   0  0  0  0  0  0  0  0  0  0  0  0
   -1.0647    2.1771    1.1747 H   0  0  0  0  0  0  0  0  0  0  0  0
   -2.3582    1.2562    1.8930 H   0  0  0  0  0  0  0  0  0  0  0  0
   -0.9261   -0.8680    1.5653 H   0  0  0  0  0  0  0  0  0  0  0  0
   -0.1957    0.3413    2.6335 H   0  0  0  0  0  0  0  0  0  0  0  0
  1  2  1  0
  2  3  2  0
  3  4  1  0
  4  5  1  0
  5  6  2  0
  5  7  1  0
  7  8  1  0
  8  9  1  0
  9 10  1  0
 10 11  1  0
 11 12  2  0
 12 13  1  0
 13 14  2  0
 14 15  1  0
 15 16  2  0
 10 17  1  0
 17 18  1  0
  4 19  2  0
 19 20  1  0
 20  2  1  0
 18  7  1  0
 16 11  1  0
  1 21  1  0
  1 22  1  0
  1 23  1  0
  3 24  1  0
  8 25  1  0
  8 26  1  0
  9 27  1  0
  9 28  1  0
 12 29  1  0
 13 30  1  0
 14 31  1  0
 15 32  1  0
 17 33  1  0
 17 34  1  0
 18 35  1  0
 18 36  1  0
M  END
