
     RDKit          3D

 45 52  0  0  0  0  0  0  0  0999 V2000
   -5.5466    1.7457    1.7691 Si  0  0  0  0  0  4  0  0  0  0  0  0
   -6.5541    0.2940    1.1633 C   0  0  0  0  0  0  0  0  0  0  0  0
   -5.8111   -0.5074    0.3774 C   0  0  0  0  0  0  0  0  0  0  0  0
   -6.2968   -1.7014   -0.2826 C   0  0  0  0  0  0  0  0  0  0  0  0
   -5.4520   -2.3960   -1.0658 C   0  0  0  0  0  0  0  0  0  0  0  0
   -4.0608   -1.9924   -1.2545 C   0  0  0  0  0  0  0  0  0  0  0  0
   -3.5167   -0.8999   -0.6637 C   0  0  0  0  0  0  0  0  0  0  0  0
   -2.0814   -0.6346   -0.9118 C   0  0  0  0  0  0  0  0  0  0  0  0
   -1.2015   -0.5117    0.1579 C   0  0  0  0  0  0  0  0  0  0  0  0
    0.1139   -0.2780   -0.2090 C   0  0  0  0  0  0  0  0  0  0  0  0
    1.1566   -0.1130    0.6632 O   0  0  0  0  0  0  0  0  0  0  0  0
    2.2892    0.0976   -0.0819 C   0  0  0  0  0  0  0  0  0  0  0  0
    1.9184    0.0565   -1.4066 C   0  0  0  0  0  0  0  0  0  0  0  0
    0.5463   -0.1803   -1.5282 C   0  0  0  0  0  0  0  0  0  0  0  0
   -0.3997   -0.3315   -2.5383 C   0  0  0  0  0  0  0  0  0  0  0  0
   -1.6991   -0.5630   -2.2166 N   0  0  0  0  0  0  0  0  0  0  0  0
    2.9127    0.2454   -2.4047 C   0  0  0  0  0  0  0  0  0  0  0  0
    2.6346    0.2159   -3.6982 N   0  0  0  0  0  0  0  0  0  0  0  0
    4.1341    0.4867   -4.3956 S   0  0  0  0  0  0  0  0  0  0  0  0
    5.0886    0.6332   -3.0287 N   0  0  0  0  0  0  0  0  0  0  0  0
    4.2811    0.4758   -1.9570 C   0  0  0  0  0  0  0  0  0  0  0  0
    4.6686    0.5197   -0.5752 C   0  0  0  0  0  0  0  0  0  0  0  0
    6.0391    0.7502   -0.1803 C   0  0  0  0  0  0  0  0  0  0  0  0
    6.4741    0.8001    1.1608 C   0  0  0  0  0  0  0  0  0  0  0  0
    5.4287    0.6016    2.0632 C   0  0  0  0  0  0  0  0  0  0  0  0
    5.6333    0.6094    3.4211 C   0  0  0  0  0  0  0  0  0  0  0  0
    4.1682    0.3380    4.2733 S   0  0  0  0  0  0  0  0  0  0  0  0
    3.2590    0.2099    2.8184 C   0  0  0  0  0  0  0  0  0  0  0  0
    4.0466    0.3691    1.7010 C   0  0  0  0  0  0  0  0  0  0  0  0
    3.5960    0.3164    0.3702 C   0  0  0  0  0  0  0  0  0  0  0  0
   -4.4001   -0.0836    0.1841 C   0  0  0  0  0  0  0  0  0  0  0  0
   -4.0834    1.0661    0.8161 C   0  0  0  0  0  0  0  0  0  0  0  0
   -5.3236    1.7078    3.2350 H   0  0  0  0  0  0  0  0  0  0  0  0
   -6.0256    3.0394    1.2257 H   0  0  0  0  0  0  0  0  0  0  0  0
   -7.5934    0.1759    1.4247 H   0  0  0  0  0  0  0  0  0  0  0  0
   -7.3275   -2.0090   -0.1493 H   0  0  0  0  0  0  0  0  0  0  0  0
   -5.7859   -3.2901   -1.5833 H   0  0  0  0  0  0  0  0  0  0  0  0
   -3.4629   -2.6319   -1.9006 H   0  0  0  0  0  0  0  0  0  0  0  0
   -1.5061   -0.5942    1.1913 H   0  0  0  0  0  0  0  0  0  0  0  0
   -0.1655   -0.2767   -3.5959 H   0  0  0  0  0  0  0  0  0  0  0  0
    6.7885    0.8942   -0.9615 H   0  0  0  0  0  0  0  0  0  0  0  0
    7.5079    0.9735    1.4312 H   0  0  0  0  0  0  0  0  0  0  0  0
    6.5542    0.7575    3.9684 H   0  0  0  0  0  0  0  0  0  0  0  0
    2.1969    0.0236    2.8891 H   0  0  0  0  0  0  0  0  0  0  0  0
   -3.1425    1.5916    0.8083 H   0  0  0  0  0  0  0  0  0  0  0  0
  1  2  1  0
  2  3  2  0
  3  4  1  0
  4  5  2  0
  5  6  1  0
  6  7  2  0
  7  8  1  0
  8  9  2  0
  9 10  1  0
 10 11  1  0
 11 12  1  0
 12 13  2  0
 13 14  1  0
 14 15  1  0
 15 16  2  0
 13 17  1  0
 17 18  2  0
 18 19  1  0
 19 20  1  0
 20 21  2  0
 21 22  1  0
 22 23  1  0
 23 24  2  0
 24 25  1  0
 25 26  2  0
 26 27  1  0
 27 28  1  0
 28 29  2  0
 29 30  1  0
  7 31  1  0
 31 32  2  0
 32  1  1  0
 31  3  1  0
 16  8  1  0
 21 17  1  0
 30 22  2  0
 14 10  2  0
 29 25  1  0
 30 12  1  0
  1 33  1  0
  1 34  1  0
  2 35  1  0
  4 36  1  0
  5 37  1  0
  6 38  1  0
  9 39  1  0
 15 40  1  0
 23 41  1  0
 24 42  1  0
 26 43  1  0
 28 44  1  0
 32 45  1  0
M  END
