
     RDKit          3D

 45 47  0  0  0  0  0  0  0  0999 V2000
    8.1280   -0.2672   -0.8028 C   0  0  0  0  0  0  0  0  0  0  0  0
    6.6797   -0.5687   -0.6265 C   0  0  0  0  0  0  0  0  0  0  0  0
    5.8344   -0.1613    0.3843 C   0  0  0  0  0  0  0  0  0  0  0  0
    4.4867   -0.6326    0.2199 C   0  0  0  0  0  0  0  0  0  0  0  0
    3.3973   -0.3634    1.1616 C   0  0  0  0  0  0  0  0  0  0  0  0
    3.6204   -0.3449    2.3712 O   0  0  0  0  0  0  0  0  0  0  0  0
    2.1223   -0.1231    0.6531 N   0  0  0  0  0  0  0  0  0  0  0  0
    1.0228    0.0205    1.6059 C   0  0  0  0  0  0  0  0  0  0  0  0
   -0.3548   -0.1327    0.9369 C   0  0  0  0  0  0  0  0  0  0  0  0
   -0.5933    0.7420   -0.2351 N   0  0  0  0  0  0  0  0  0  0  0  0
   -1.5692    1.8009    0.0446 C   0  0  0  0  0  0  0  0  0  0  0  0
   -3.0081    1.3573    0.1135 C   0  0  0  0  0  0  0  0  0  0  0  0
   -3.5024    0.1636   -0.2574 C   0  0  0  0  0  0  0  0  0  0  0  0
   -4.9189   -0.2131   -0.1575 C   0  0  0  0  0  0  0  0  0  0  0  0
   -5.9554    0.6835   -0.4478 C   0  0  0  0  0  0  0  0  0  0  0  0
   -7.2902    0.2770   -0.3691 C   0  0  0  0  0  0  0  0  0  0  0  0
   -7.6016   -1.0326   -0.0097 C   0  0  0  0  0  0  0  0  0  0  0  0
   -6.5794   -1.9380    0.2658 C   0  0  0  0  0  0  0  0  0  0  0  0
   -5.2449   -1.5316    0.1863 C   0  0  0  0  0  0  0  0  0  0  0  0
    0.6603    1.3169   -0.7610 C   0  0  0  0  0  0  0  0  0  0  0  0
    1.8431    0.3313   -0.7145 C   0  0  0  0  0  0  0  0  0  0  0  0
    4.3970   -1.4444   -0.8965 C   0  0  0  0  0  0  0  0  0  0  0  0
    5.8666   -1.5521   -1.7630 S   0  0  0  0  0  0  0  0  0  0  0  0
    8.7207   -1.1877   -0.7899 H   0  0  0  0  0  0  0  0  0  0  0  0
    8.4938    0.3785    0.0025 H   0  0  0  0  0  0  0  0  0  0  0  0
    8.3045    0.2496   -1.7519 H   0  0  0  0  0  0  0  0  0  0  0  0
    6.1528    0.4571    1.2166 H   0  0  0  0  0  0  0  0  0  0  0  0
    1.1127    1.0108    2.0694 H   0  0  0  0  0  0  0  0  0  0  0  0
    1.1354   -0.7258    2.4008 H   0  0  0  0  0  0  0  0  0  0  0  0
   -0.4375   -1.1656    0.5743 H   0  0  0  0  0  0  0  0  0  0  0  0
   -1.1340   -0.0213    1.7006 H   0  0  0  0  0  0  0  0  0  0  0  0
   -1.3091    2.3184    0.9774 H   0  0  0  0  0  0  0  0  0  0  0  0
   -1.5302    2.5578   -0.7504 H   0  0  0  0  0  0  0  0  0  0  0  0
   -3.6831    2.1121    0.5113 H   0  0  0  0  0  0  0  0  0  0  0  0
   -2.8391   -0.6031   -0.6511 H   0  0  0  0  0  0  0  0  0  0  0  0
   -5.7352    1.7039   -0.7505 H   0  0  0  0  0  0  0  0  0  0  0  0
   -8.0855    0.9824   -0.5951 H   0  0  0  0  0  0  0  0  0  0  0  0
   -8.6397   -1.3487    0.0500 H   0  0  0  0  0  0  0  0  0  0  0  0
   -6.8188   -2.9618    0.5408 H   0  0  0  0  0  0  0  0  0  0  0  0
   -4.4602   -2.2527    0.4032 H   0  0  0  0  0  0  0  0  0  0  0  0
    0.5007    1.6299   -1.7994 H   0  0  0  0  0  0  0  0  0  0  0  0
    0.9386    2.2124   -0.1882 H   0  0  0  0  0  0  0  0  0  0  0  0
    2.7288    0.8150   -1.1383 H   0  0  0  0  0  0  0  0  0  0  0  0
    1.6090   -0.5556   -1.3142 H   0  0  0  0  0  0  0  0  0  0  0  0
    3.5352   -1.9931   -1.2501 H   0  0  0  0  0  0  0  0  0  0  0  0
  1  2  1  0
  2  3  2  0
  3  4  1  0
  4  5  1  0
  5  6  2  0
  5  7  1  0
  7  8  1  0
  8  9  1  0
  9 10  1  0
 10 11  1  0
 11 12  1  0
 12 13  2  3
 13 14  1  0
 14 15  2  0
 15 16  1  0
 16 17  2  0
 17 18  1  0
 18 19  2  0
 10 20  1  0
 20 21  1  0
  4 22  2  0
 22 23  1  0
 23  2  1  0
 21  7  1  0
 19 14  1  0
  1 24  1  0
  1 25  1  0
  1 26  1  0
  3 27  1  0
  8 28  1  0
  8 29  1  0
  9 30  1  0
  9 31  1  0
 11 32  1  0
 11 33  1  0
 12 34  1  0
 13 35  1  0
 15 36  1  0
 16 37  1  0
 17 38  1  0
 18 39  1  0
 19 40  1  0
 20 41  1  0
 20 42  1  0
 21 43  1  0
 21 44  1  0
 22 45  1  0
M  END
