
     RDKit          3D

 41 43  0  0  0  0  0  0  0  0999 V2000
    1.7841    2.1310    2.2859 C   0  0  0  0  0  0  0  0  0  0  0  0
    0.9550    1.0270    1.7216 C   0  0  0  0  0  0  0  0  0  0  0  0
   -0.4042    0.8482    1.8814 C   0  0  0  0  0  0  0  0  0  0  0  0
   -0.8044   -0.2623    1.0994 C   0  0  0  0  0  0  0  0  0  0  0  0
   -2.1555   -0.7899    0.9674 C   0  0  0  0  0  0  0  0  0  0  0  0
   -2.5764   -1.9200    2.1306 S   0  0  0  0  0  0  0  0  0  0  0  0
   -2.9544   -0.3086   -0.0675 N   0  0  0  0  0  0  0  0  0  0  0  0
   -2.4779    0.6722   -1.0565 C   0  0  0  0  0  0  0  0  0  0  0  0
   -3.2649    0.5685   -2.3669 C   0  0  0  0  0  0  0  0  0  0  0  0
   -4.6744    0.7706   -2.2106 O   0  0  0  0  0  0  0  0  0  0  0  0
   -5.1749    0.3990   -0.9201 C   0  0  0  0  0  0  0  0  0  0  0  0
   -4.3622   -0.7064   -0.2372 C   0  0  0  0  0  0  0  0  0  0  0  0
    0.3396   -0.7516    0.4735 C   0  0  0  0  0  0  0  0  0  0  0  0
    0.4554   -1.9646   -0.3932 C   0  0  0  0  0  0  0  0  0  0  0  0
    1.4244    0.0372    0.8613 N   0  0  0  0  0  0  0  0  0  0  0  0
    2.7775   -0.1289    0.4419 C   0  0  0  0  0  0  0  0  0  0  0  0
    3.8148   -0.0717    1.3821 C   0  0  0  0  0  0  0  0  0  0  0  0
    5.1409   -0.2341    0.9715 C   0  0  0  0  0  0  0  0  0  0  0  0
    5.4293   -0.4493   -0.3746 C   0  0  0  0  0  0  0  0  0  0  0  0
    7.0624   -0.6461   -0.8781 Cl  0  0  0  0  0  0  0  0  0  0  0  0
    4.4032   -0.5059   -1.3159 C   0  0  0  0  0  0  0  0  0  0  0  0
    3.0753   -0.3473   -0.9095 C   0  0  0  0  0  0  0  0  0  0  0  0
    2.5114    2.5061    1.5596 H   0  0  0  0  0  0  0  0  0  0  0  0
    1.1488    2.9781    2.5680 H   0  0  0  0  0  0  0  0  0  0  0  0
    2.3076    1.8013    3.1879 H   0  0  0  0  0  0  0  0  0  0  0  0
   -1.0517    1.4678    2.4903 H   0  0  0  0  0  0  0  0  0  0  0  0
   -1.4139    0.5347   -1.2618 H   0  0  0  0  0  0  0  0  0  0  0  0
   -2.6194    1.6623   -0.6076 H   0  0  0  0  0  0  0  0  0  0  0  0
   -2.9033    1.3113   -3.0850 H   0  0  0  0  0  0  0  0  0  0  0  0
   -3.1205   -0.4202   -2.8181 H   0  0  0  0  0  0  0  0  0  0  0  0
   -5.1843    1.3014   -0.2975 H   0  0  0  0  0  0  0  0  0  0  0  0
   -6.2139    0.0800   -1.0492 H   0  0  0  0  0  0  0  0  0  0  0  0
   -4.3577   -1.6098   -0.8582 H   0  0  0  0  0  0  0  0  0  0  0  0
   -4.8181   -0.9490    0.7262 H   0  0  0  0  0  0  0  0  0  0  0  0
   -0.3773   -2.6541   -0.2231 H   0  0  0  0  0  0  0  0  0  0  0  0
    1.3719   -2.5253   -0.1863 H   0  0  0  0  0  0  0  0  0  0  0  0
    0.4322   -1.6841   -1.4503 H   0  0  0  0  0  0  0  0  0  0  0  0
    3.6091    0.0528    2.4420 H   0  0  0  0  0  0  0  0  0  0  0  0
    5.9405   -0.2007    1.7070 H   0  0  0  0  0  0  0  0  0  0  0  0
    4.6301   -0.6650   -2.3669 H   0  0  0  0  0  0  0  0  0  0  0  0
    2.2957   -0.3547   -1.6660 H   0  0  0  0  0  0  0  0  0  0  0  0
  1  2  1  0
  2  3  2  0
  3  4  1  0
  4  5  1  0
  5  6  2  0
  5  7  1  0
  7  8  1  0
  8  9  1  0
  9 10  1  0
 10 11  1  0
 11 12  1  0
  4 13  2  0
 13 14  1  0
 13 15  1  0
 15 16  1  0
 16 17  2  0
 17 18  1  0
 18 19  2  0
 19 20  1  0
 19 21  1  0
 21 22  2  0
 15  2  1  0
 22 16  1  0
 12  7  1  0
  1 23  1  0
  1 24  1  0
  1 25  1  0
  3 26  1  0
  8 27  1  0
  8 28  1  0
  9 29  1  0
  9 30  1  0
 11 31  1  0
 11 32  1  0
 12 33  1  0
 12 34  1  0
 14 35  1  0
 14 36  1  0
 14 37  1  0
 17 38  1  0
 18 39  1  0
 21 40  1  0
 22 41  1  0
M  END
