
     RDKit          3D

 45 46  0  0  0  0  0  0  0  0999 V2000
    2.7027   -2.4664    0.2950 C   0  0  0  0  0  0  0  0  0  0  0  0
    3.1632   -1.0885    0.6656 C   0  0  0  0  0  0  0  0  0  0  0  0
    4.4467   -0.8880    1.1557 C   0  0  0  0  0  0  0  0  0  0  0  0
    4.8563    0.4074    1.4899 C   0  0  0  0  0  0  0  0  0  0  0  0
    6.2477    0.6293    2.0203 C   0  0  0  0  0  0  0  0  0  0  0  0
    3.9496    1.4720    1.3152 C   0  0  0  0  0  0  0  0  0  0  0  0
    4.3413    2.8114    1.6476 C   0  0  0  0  0  0  0  0  0  0  0  0
    4.7172    3.8721    1.9334 N   0  0  0  0  0  0  0  0  0  0  0  0
    2.6761    1.1873    0.8137 C   0  0  0  0  0  0  0  0  0  0  0  0
    1.4521    2.4705    0.5556 S   0  0  0  0  0  0  0  0  0  0  0  0
    0.0844    1.4905   -0.1456 C   0  0  0  0  0  0  0  0  0  0  0  0
   -1.1336    2.3447   -0.4948 C   0  0  0  0  0  0  0  0  0  0  0  0
   -1.0996    3.5769   -0.4809 O   0  0  0  0  0  0  0  0  0  0  0  0
   -2.3005    1.6553   -0.8676 N   0  0  0  0  0  0  0  0  0  0  0  0
   -3.4930    2.4506   -1.1462 C   0  0  0  0  0  0  0  0  0  0  0  0
   -2.4258    0.1809   -0.8863 C   0  0  0  0  0  0  0  0  0  0  0  0
   -2.9711   -0.3437    0.4532 C   0  0  0  0  0  0  0  0  0  0  0  0
   -3.0513   -1.8691    0.4649 C   0  0  0  0  0  0  0  0  0  0  0  0
   -3.8629   -2.4021   -0.7125 C   0  0  0  0  0  0  0  0  0  0  0  0
   -3.3368   -1.8770   -2.0455 C   0  0  0  0  0  0  0  0  0  0  0  0
   -3.2696   -0.3506   -2.0584 C   0  0  0  0  0  0  0  0  0  0  0  0
    2.2862   -0.0747    0.4934 N   0  0  0  0  0  0  0  0  0  0  0  0
    3.3066   -2.8570   -0.5297 H   0  0  0  0  0  0  0  0  0  0  0  0
    2.7870   -3.1390    1.1543 H   0  0  0  0  0  0  0  0  0  0  0  0
    1.6554   -2.4535   -0.0243 H   0  0  0  0  0  0  0  0  0  0  0  0
    5.1199   -1.7330    1.2757 H   0  0  0  0  0  0  0  0  0  0  0  0
    6.2093    1.0658    3.0236 H   0  0  0  0  0  0  0  0  0  0  0  0
    6.8033   -0.3119    2.0931 H   0  0  0  0  0  0  0  0  0  0  0  0
    6.8088    1.2913    1.3528 H   0  0  0  0  0  0  0  0  0  0  0  0
   -0.2067    0.7463    0.5998 H   0  0  0  0  0  0  0  0  0  0  0  0
    0.4303    1.0065   -1.0643 H   0  0  0  0  0  0  0  0  0  0  0  0
   -3.3531    3.5105   -0.9209 H   0  0  0  0  0  0  0  0  0  0  0  0
   -3.7380    2.3578   -2.2079 H   0  0  0  0  0  0  0  0  0  0  0  0
   -4.3254    2.0825   -0.5402 H   0  0  0  0  0  0  0  0  0  0  0  0
   -1.4235   -0.2391   -1.0188 H   0  0  0  0  0  0  0  0  0  0  0  0
   -3.9694    0.0702    0.6421 H   0  0  0  0  0  0  0  0  0  0  0  0
   -2.3375   -0.0080    1.2821 H   0  0  0  0  0  0  0  0  0  0  0  0
   -3.5017   -2.2068    1.4051 H   0  0  0  0  0  0  0  0  0  0  0  0
   -2.0377   -2.2871    0.4285 H   0  0  0  0  0  0  0  0  0  0  0  0
   -4.9126   -2.1062   -0.5938 H   0  0  0  0  0  0  0  0  0  0  0  0
   -3.8381   -3.4977   -0.7117 H   0  0  0  0  0  0  0  0  0  0  0  0
   -3.9834   -2.2241   -2.8592 H   0  0  0  0  0  0  0  0  0  0  0  0
   -2.3378   -2.2892   -2.2329 H   0  0  0  0  0  0  0  0  0  0  0  0
   -4.2921    0.0431   -2.0099 H   0  0  0  0  0  0  0  0  0  0  0  0
   -2.8430   -0.0102   -3.0095 H   0  0  0  0  0  0  0  0  0  0  0  0
  1  2  1  0
  2  3  2  0
  3  4  1  0
  4  5  1  0
  4  6  2  0
  6  7  1  0
  7  8  3  0
  6  9  1  0
  9 10  1  0
 10 11  1  0
 11 12  1  0
 12 13  2  0
 12 14  1  0
 14 15  1  0
 14 16  1  0
 16 17  1  0
 17 18  1  0
 18 19  1  0
 19 20  1  0
 20 21  1  0
  9 22  2  0
 22  2  1  0
 21 16  1  0
  1 23  1  0
  1 24  1  0
  1 25  1  0
  3 26  1  0
  5 27  1  0
  5 28  1  0
  5 29  1  0
 11 30  1  0
 11 31  1  0
 15 32  1  0
 15 33  1  0
 15 34  1  0
 16 35  1  0
 17 36  1  0
 17 37  1  0
 18 38  1  0
 18 39  1  0
 19 40  1  0
 19 41  1  0
 20 42  1  0
 20 43  1  0
 21 44  1  0
 21 45  1  0
M  END
