
     RDKit          3D

 30 32  0  0  0  0  0  0  0  0999 V2000
   -3.9754   -0.7628    1.9750 C   0  0  0  0  0  0  0  0  0  0  0  0
   -3.0184   -0.2678    0.9571 C   0  0  0  0  0  0  0  0  0  0  0  0
   -2.7575   -0.7900   -0.3163 C   0  0  0  0  0  0  0  0  0  0  0  0
   -1.8181    0.0501   -0.8824 C   0  0  0  0  0  0  0  0  0  0  0  0
   -1.3090   -0.0004   -2.2751 C   0  0  0  0  0  0  0  0  0  0  0  0
   -1.4908    0.9926    0.0972 N   0  0  0  0  0  0  0  0  0  0  0  0
   -0.5344    2.0371    0.1673 C   0  0  0  0  0  0  0  0  0  0  0  0
   -0.6244    2.9003    1.0421 O   0  0  0  0  0  0  0  0  0  0  0  0
    0.6139    1.9960   -0.7928 C   0  0  0  0  0  0  0  0  0  0  0  0
    1.5980    0.9370   -0.4389 C   0  0  0  0  0  0  0  0  0  0  0  0
    2.1896    0.6697    0.7921 C   0  0  0  0  0  0  0  0  0  0  0  0
    3.0117   -0.3889    0.5559 N   0  0  0  0  0  0  0  0  0  0  0  0
    3.8789   -1.1724    1.2799 C   0  0  0  0  0  0  0  0  0  0  0  0
    4.4491   -2.1152    0.5090 C   0  0  0  0  0  0  0  0  0  0  0  0
    3.9065   -2.0485   -1.1798 S   0  0  0  0  0  0  0  0  0  0  0  0
    2.8946   -0.7012   -0.7637 C   0  0  0  0  0  0  0  0  0  0  0  0
    2.0624    0.0652   -1.4128 N   0  0  0  0  0  0  0  0  0  0  0  0
   -2.2938    0.8231    1.1950 N   0  0  0  0  0  0  0  0  0  0  0  0
   -3.4624   -0.9612    2.9216 H   0  0  0  0  0  0  0  0  0  0  0  0
   -4.7614   -0.0223    2.1546 H   0  0  0  0  0  0  0  0  0  0  0  0
   -4.4532   -1.6921    1.6487 H   0  0  0  0  0  0  0  0  0  0  0  0
   -3.2247   -1.6445   -0.7875 H   0  0  0  0  0  0  0  0  0  0  0  0
   -0.2795   -0.3569   -2.3152 H   0  0  0  0  0  0  0  0  0  0  0  0
   -1.3907    0.9748   -2.7631 H   0  0  0  0  0  0  0  0  0  0  0  0
   -1.9072   -0.6978   -2.8731 H   0  0  0  0  0  0  0  0  0  0  0  0
    0.2794    1.9350   -1.8273 H   0  0  0  0  0  0  0  0  0  0  0  0
    1.1261    2.9654   -0.7248 H   0  0  0  0  0  0  0  0  0  0  0  0
    2.0882    1.1300    1.7657 H   0  0  0  0  0  0  0  0  0  0  0  0
    4.0366   -0.9999    2.3329 H   0  0  0  0  0  0  0  0  0  0  0  0
    5.1660   -2.8542    0.8418 H   0  0  0  0  0  0  0  0  0  0  0  0
  1  2  1  0
  2  3  1  0
  3  4  2  0
  4  5  1  0
  4  6  1  0
  6  7  1  0
  7  8  2  0
  7  9  1  0
  9 10  1  0
 10 11  2  0
 11 12  1  0
 12 13  1  0
 13 14  2  0
 14 15  1  0
 15 16  1  0
 16 17  2  0
  6 18  1  0
 18  2  2  0
 17 10  1  0
 16 12  1  0
  1 19  1  0
  1 20  1  0
  1 21  1  0
  3 22  1  0
  5 23  1  0
  5 24  1  0
  5 25  1  0
  9 26  1  0
  9 27  1  0
 11 28  1  0
 13 29  1  0
 14 30  1  0
M  END
