
     RDKit          3D

 47 52  0  0  0  0  0  0  0  0999 V2000
   -0.7701    1.6996   -2.5261 C   0  0  0  0  0  0  0  0  0  0  0  0
   -0.1016    0.8561   -1.4892 C   0  0  0  0  0  0  0  0  0  0  0  0
    1.3026    0.9429   -1.1922 C   0  0  0  0  0  0  0  0  0  0  0  0
    1.7253    0.0612   -0.2138 C   0  0  0  0  0  0  0  0  0  0  0  0
    3.0634   -0.1143    0.3167 C   0  0  0  0  0  0  0  0  0  0  0  0
    3.4582   -0.8678    1.4056 C   0  0  0  0  0  0  0  0  0  0  0  0
    4.8733   -0.8323    1.6618 C   0  0  0  0  0  0  0  0  0  0  0  0
    5.5026   -1.6078    2.7742 C   0  0  0  0  0  0  0  0  0  0  0  0
    5.5257   -0.0179    0.7463 C   0  0  0  0  0  0  0  0  0  0  0  0
    6.9114    0.3382    0.6279 C   0  0  0  0  0  0  0  0  0  0  0  0
    7.9153    0.5847    2.0217 S   0  0  0  0  0  4  0  0  0  0  0  0
    9.2585    0.9957    1.0155 C   0  0  0  0  0  0  0  0  0  0  0  0
    8.9240    0.9357   -0.4001 C   0  0  0  0  0  0  0  0  0  0  0  0
    7.6543    0.5808   -0.6136 C   0  0  0  0  0  0  0  0  0  0  0  0
    4.4254    0.6365   -0.3965 S   0  0  0  0  0  0  0  0  0  0  0  0
    0.4032   -0.8789    0.3411 S   0  0  0  0  0  0  0  0  0  0  0  0
   -0.7150   -0.1010   -0.6961 C   0  0  0  0  0  0  0  0  0  0  0  0
   -2.1040   -0.4852   -0.6648 C   0  0  0  0  0  0  0  0  0  0  0  0
   -2.6234   -1.7495   -0.8527 C   0  0  0  0  0  0  0  0  0  0  0  0
   -4.0442   -1.7758   -0.7373 C   0  0  0  0  0  0  0  0  0  0  0  0
   -4.5819   -0.5327   -0.4595 C   0  0  0  0  0  0  0  0  0  0  0  0
   -5.9802   -0.1510   -0.2611 C   0  0  0  0  0  0  0  0  0  0  0  0
   -6.5590    1.0138   -0.8200 C   0  0  0  0  0  0  0  0  0  0  0  0
   -7.9132    1.3836   -0.6366 C   0  0  0  0  0  0  0  0  0  0  0  0
   -8.8162    0.6244    0.1232 C   0  0  0  0  0  0  0  0  0  0  0  0
   -8.3027   -0.5572    0.7089 C   0  0  0  0  0  0  0  0  0  0  0  0
   -9.0044   -1.4149    1.4658 N   0  0  0  0  0  0  0  0  0  0  0  0
   -7.9534   -2.6180    1.9093 S   0  0  0  0  0  0  0  0  0  0  0  0
   -6.5669   -2.1157    1.1535 N   0  0  0  0  0  0  0  0  0  0  0  0
   -6.8566   -0.9650    0.5175 C   0  0  0  0  0  0  0  0  0  0  0  0
   -3.3417    0.6496   -0.3369 S   0  0  0  0  0  0  0  0  0  0  0  0
   -1.4859    1.1134   -3.1110 H   0  0  0  0  0  0  0  0  0  0  0  0
   -0.0367    2.1138   -3.2259 H   0  0  0  0  0  0  0  0  0  0  0  0
   -1.2969    2.5357   -2.0559 H   0  0  0  0  0  0  0  0  0  0  0  0
    1.9675    1.6375   -1.6924 H   0  0  0  0  0  0  0  0  0  0  0  0
    2.7664   -1.4392    2.0136 H   0  0  0  0  0  0  0  0  0  0  0  0
    5.7399   -0.9496    3.6149 H   0  0  0  0  0  0  0  0  0  0  0  0
    4.8230   -2.3843    3.1417 H   0  0  0  0  0  0  0  0  0  0  0  0
    6.4152   -2.1091    2.4377 H   0  0  0  0  0  0  0  0  0  0  0  0
   10.2657    1.2752    1.3479 H   0  0  0  0  0  0  0  0  0  0  0  0
    9.6483    1.1583   -1.1680 H   0  0  0  0  0  0  0  0  0  0  0  0
    7.2055    0.4701   -1.5885 H   0  0  0  0  0  0  0  0  0  0  0  0
   -2.0160   -2.6210   -1.0645 H   0  0  0  0  0  0  0  0  0  0  0  0
   -4.6419   -2.6727   -0.8503 H   0  0  0  0  0  0  0  0  0  0  0  0
   -5.9415    1.6674   -1.4380 H   0  0  0  0  0  0  0  0  0  0  0  0
   -8.2703    2.2993   -1.1091 H   0  0  0  0  0  0  0  0  0  0  0  0
   -9.8510    0.9184    0.2551 H   0  0  0  0  0  0  0  0  0  0  0  0
  1  2  1  0
  2  3  1  0
  3  4  2  0
  4  5  1  0
  5  6  2  0
  6  7  1  0
  7  8  1  0
  7  9  2  0
  9 10  1  0
 10 11  2  0
 11 12  2  0
 12 13  1  0
 13 14  2  0
  9 15  1  0
  4 16  1  0
 16 17  1  0
 17 18  1  0
 18 19  2  0
 19 20  1  0
 20 21  2  0
 21 22  1  0
 22 23  2  0
 23 24  1  0
 24 25  2  0
 25 26  1  0
 26 27  2  0
 27 28  1  0
 28 29  1  0
 29 30  2  0
 21 31  1  0
 17  2  2  0
 31 18  1  0
 15  5  1  0
 30 22  1  0
 14 10  1  0
 30 26  1  0
  1 32  1  0
  1 33  1  0
  1 34  1  0
  3 35  1  0
  6 36  1  0
  8 37  1  0
  8 38  1  0
  8 39  1  0
 12 40  1  0
 13 41  1  0
 14 42  1  0
 19 43  1  0
 20 44  1  0
 23 45  1  0
 24 46  1  0
 25 47  1  0
M  END
