
     RDKit          3D

 27 28  0  0  0  0  0  0  0  0999 V2000
   -2.7451    2.7378    0.7902 C   0  0  0  0  0  0  0  0  0  0  0  0
   -2.1124    1.3904    0.6126 C   0  0  0  0  0  0  0  0  0  0  0  0
   -0.7703    1.2848    0.2776 C   0  0  0  0  0  0  0  0  0  0  0  0
   -0.2000    0.0155    0.1196 C   0  0  0  0  0  0  0  0  0  0  0  0
    1.2233   -0.0890   -0.2352 C   0  0  0  0  0  0  0  0  0  0  0  0
    2.1787   -0.4645    0.7233 C   0  0  0  0  0  0  0  0  0  0  0  0
    3.5308   -0.5616    0.3855 C   0  0  0  0  0  0  0  0  0  0  0  0
    3.9474   -0.2805   -0.9144 C   0  0  0  0  0  0  0  0  0  0  0  0
    3.0085    0.0975   -1.8709 C   0  0  0  0  0  0  0  0  0  0  0  0
    3.5705    0.4831   -3.6345 Br  0  0  0  0  0  0  0  0  0  0  0  0
    1.6562    0.1953   -1.5400 C   0  0  0  0  0  0  0  0  0  0  0  0
   -1.0238   -1.1106    0.3057 C   0  0  0  0  0  0  0  0  0  0  0  0
   -0.5097   -2.4379    0.1477 C   0  0  0  0  0  0  0  0  0  0  0  0
   -0.1251   -3.5275    0.0349 N   0  0  0  0  0  0  0  0  0  0  0  0
   -2.3690   -0.9208    0.6423 C   0  0  0  0  0  0  0  0  0  0  0  0
   -3.2576   -1.9854    0.8413 N   0  0  0  0  0  0  0  0  0  0  0  0
   -2.9000    0.3076    0.7927 N   0  0  0  0  0  0  0  0  0  0  0  0
   -3.8041    2.6404    1.0503 H   0  0  0  0  0  0  0  0  0  0  0  0
   -2.6737    3.3141   -0.1375 H   0  0  0  0  0  0  0  0  0  0  0  0
   -2.2457    3.2868    1.5945 H   0  0  0  0  0  0  0  0  0  0  0  0
   -0.1705    2.1820    0.1453 H   0  0  0  0  0  0  0  0  0  0  0  0
    1.8764   -0.6854    1.7458 H   0  0  0  0  0  0  0  0  0  0  0  0
    4.2586   -0.8588    1.1369 H   0  0  0  0  0  0  0  0  0  0  0  0
    5.0008   -0.3602   -1.1703 H   0  0  0  0  0  0  0  0  0  0  0  0
    0.9348    0.4881   -2.3002 H   0  0  0  0  0  0  0  0  0  0  0  0
   -3.3397   -2.5512    0.0007 H   0  0  0  0  0  0  0  0  0  0  0  0
   -2.9391   -2.5899    1.5938 H   0  0  0  0  0  0  0  0  0  0  0  0
  1  2  1  0
  2  3  2  0
  3  4  1  0
  4  5  1  0
  5  6  2  0
  6  7  1  0
  7  8  2  0
  8  9  1  0
  9 10  1  0
  9 11  2  0
  4 12  2  0
 12 13  1  0
 13 14  3  0
 12 15  1  0
 15 16  1  0
 15 17  2  0
 17  2  1  0
 11  5  1  0
  1 18  1  0
  1 19  1  0
  1 20  1  0
  3 21  1  0
  6 22  1  0
  7 23  1  0
  8 24  1  0
 11 25  1  0
 16 26  1  0
 16 27  1  0
M  END
