
     RDKit          3D

 45 48  0  0  0  0  0  0  0  0999 V2000
    0.2902    3.7896    1.6269 C   0  0  0  0  0  0  0  0  0  0  0  0
    0.1628    2.3997    1.0546 C   0  0  0  0  0  0  0  0  0  0  0  0
   -1.2107    1.9110    0.7527 C   0  0  0  0  0  0  0  0  0  0  0  0
   -1.3385    0.6755    0.2300 C   0  0  0  0  0  0  0  0  0  0  0  0
   -2.6199    0.1575   -0.0963 N   0  0  0  0  0  0  0  0  0  0  0  0
   -2.7805   -0.8453   -1.1712 C   0  0  0  0  0  0  0  0  0  0  0  0
   -4.1808   -0.7435   -1.7764 C   0  0  0  0  0  0  0  0  0  0  0  0
   -5.2600   -0.8866   -0.7090 C   0  0  0  0  0  0  0  0  0  0  0  0
   -5.0308    0.1150    0.4174 C   0  0  0  0  0  0  0  0  0  0  0  0
   -3.6178   -0.0019    0.9818 C   0  0  0  0  0  0  0  0  0  0  0  0
   -0.1411   -0.0771    0.0166 N   0  0  0  0  0  0  0  0  0  0  0  0
   -0.0118   -1.3524   -0.4595 N   0  0  0  0  0  0  0  0  0  0  0  0
    1.3001   -1.5980   -0.4632 C   0  0  0  0  0  0  0  0  0  0  0  0
    1.7927   -2.9228   -0.9192 C   0  0  0  0  0  0  0  0  0  0  0  0
    2.0538   -0.4975    0.0105 C   0  0  0  0  0  0  0  0  0  0  0  0
    3.4904   -0.3351    0.1609 C   0  0  0  0  0  0  0  0  0  0  0  0
    4.0384    0.1207    1.3667 C   0  0  0  0  0  0  0  0  0  0  0  0
    5.4213    0.2557    1.5113 C   0  0  0  0  0  0  0  0  0  0  0  0
    6.2681   -0.0632    0.4515 C   0  0  0  0  0  0  0  0  0  0  0  0
    5.7337   -0.5134   -0.7544 C   0  0  0  0  0  0  0  0  0  0  0  0
    4.3506   -0.6487   -0.8998 C   0  0  0  0  0  0  0  0  0  0  0  0
    1.1156    0.4653    0.3386 C   0  0  0  0  0  0  0  0  0  0  0  0
    1.2544    1.7236    0.8616 N   0  0  0  0  0  0  0  0  0  0  0  0
    0.7962    3.7355    2.5953 H   0  0  0  0  0  0  0  0  0  0  0  0
   -0.6863    4.2604    1.7653 H   0  0  0  0  0  0  0  0  0  0  0  0
    0.8866    4.4053    0.9472 H   0  0  0  0  0  0  0  0  0  0  0  0
   -2.0550    2.5612    0.9301 H   0  0  0  0  0  0  0  0  0  0  0  0
   -2.6176   -1.8549   -0.7753 H   0  0  0  0  0  0  0  0  0  0  0  0
   -2.0597   -0.6648   -1.9772 H   0  0  0  0  0  0  0  0  0  0  0  0
   -4.3108   -1.5167   -2.5418 H   0  0  0  0  0  0  0  0  0  0  0  0
   -4.2931    0.2273   -2.2754 H   0  0  0  0  0  0  0  0  0  0  0  0
   -6.2489   -0.7295   -1.1536 H   0  0  0  0  0  0  0  0  0  0  0  0
   -5.2454   -1.9060   -0.3046 H   0  0  0  0  0  0  0  0  0  0  0  0
   -5.7642   -0.0494    1.2146 H   0  0  0  0  0  0  0  0  0  0  0  0
   -5.1895    1.1316    0.0361 H   0  0  0  0  0  0  0  0  0  0  0  0
   -3.4782   -0.9765    1.4663 H   0  0  0  0  0  0  0  0  0  0  0  0
   -3.4908    0.7622    1.7574 H   0  0  0  0  0  0  0  0  0  0  0  0
    1.0010   -3.6785   -0.8763 H   0  0  0  0  0  0  0  0  0  0  0  0
    2.1468   -2.8610   -1.9530 H   0  0  0  0  0  0  0  0  0  0  0  0
    2.6167   -3.2720   -0.2890 H   0  0  0  0  0  0  0  0  0  0  0  0
    3.3898    0.3771    2.2016 H   0  0  0  0  0  0  0  0  0  0  0  0
    5.8339    0.6135    2.4507 H   0  0  0  0  0  0  0  0  0  0  0  0
    7.3436    0.0454    0.5636 H   0  0  0  0  0  0  0  0  0  0  0  0
    6.3923   -0.7536   -1.5848 H   0  0  0  0  0  0  0  0  0  0  0  0
    3.9522   -0.9849   -1.8537 H   0  0  0  0  0  0  0  0  0  0  0  0
  1  2  1  0
  2  3  1  0
  3  4  2  0
  4  5  1  0
  5  6  1  0
  6  7  1  0
  7  8  1  0
  8  9  1  0
  9 10  1  0
  4 11  1  0
 11 12  1  0
 12 13  2  0
 13 14  1  0
 13 15  1  0
 15 16  1  0
 16 17  2  0
 17 18  1  0
 18 19  2  0
 19 20  1  0
 20 21  2  0
 15 22  2  0
 22 23  1  0
 23  2  2  0
 10  5  1  0
 22 11  1  0
 21 16  1  0
  1 24  1  0
  1 25  1  0
  1 26  1  0
  3 27  1  0
  6 28  1  0
  6 29  1  0
  7 30  1  0
  7 31  1  0
  8 32  1  0
  8 33  1  0
  9 34  1  0
  9 35  1  0
 10 36  1  0
 10 37  1  0
 14 38  1  0
 14 39  1  0
 14 40  1  0
 17 41  1  0
 18 42  1  0
 19 43  1  0
 20 44  1  0
 21 45  1  0
M  END
