
     RDKit          3D

 34 36  0  0  0  0  0  0  0  0999 V2000
    6.8075   -0.1910   -1.0565 C   0  0  0  0  0  0  0  0  0  0  0  0
    5.5410    0.0260   -0.3374 C   0  0  0  0  0  0  0  0  0  0  0  0
    4.2417   -0.3667   -0.5408 C   0  0  0  0  0  0  0  0  0  0  0  0
    3.5278    0.1939    0.5404 C   0  0  0  0  0  0  0  0  0  0  0  0
    2.1858    0.1191    0.8403 N   0  0  0  0  0  0  0  0  0  0  0  0
    1.2412   -0.5516    0.0974 C   0  0  0  0  0  0  0  0  0  0  0  0
    1.4501   -1.1635   -0.9447 O   0  0  0  0  0  0  0  0  0  0  0  0
   -0.1438   -0.4241    0.6958 C   0  0  0  0  0  0  0  0  0  0  0  0
   -1.1423   -1.3258   -0.0224 C   0  0  0  0  0  0  0  0  0  0  0  0
   -2.4843   -1.1695    0.5078 N   0  0  0  0  0  0  0  0  0  0  0  0
   -2.9063   -1.8855    1.6212 C   0  0  0  0  0  0  0  0  0  0  0  0
   -2.2572   -2.6990    2.2603 O   0  0  0  0  0  0  0  0  0  0  0  0
   -4.5655   -1.4290    2.0387 S   0  0  0  0  0  0  0  0  0  0  0  0
   -4.6171   -0.2425    0.7276 C   0  0  0  0  0  0  0  0  0  0  0  0
   -5.6634    0.6050    0.3991 C   0  0  0  0  0  0  0  0  0  0  0  0
   -5.4955    1.4817   -0.6736 C   0  0  0  0  0  0  0  0  0  0  0  0
   -4.2931    1.4985   -1.3945 C   0  0  0  0  0  0  0  0  0  0  0  0
   -3.2436    0.6385   -1.0534 C   0  0  0  0  0  0  0  0  0  0  0  0
   -3.4174   -0.2338    0.0132 C   0  0  0  0  0  0  0  0  0  0  0  0
    4.3435    0.8836    1.3456 N   0  0  0  0  0  0  0  0  0  0  0  0
    5.6064    0.7769    0.7930 O   0  0  0  0  0  0  0  0  0  0  0  0
    7.5307   -0.7027   -0.4142 H   0  0  0  0  0  0  0  0  0  0  0  0
    7.2392    0.7643   -1.3705 H   0  0  0  0  0  0  0  0  0  0  0  0
    6.6522   -0.8041   -1.9496 H   0  0  0  0  0  0  0  0  0  0  0  0
    3.8700   -0.9729   -1.3531 H   0  0  0  0  0  0  0  0  0  0  0  0
    1.9312    0.6043    1.6903 H   0  0  0  0  0  0  0  0  0  0  0  0
   -0.4532    0.6249    0.6191 H   0  0  0  0  0  0  0  0  0  0  0  0
   -0.0996   -0.6845    1.7600 H   0  0  0  0  0  0  0  0  0  0  0  0
   -1.1481   -1.1512   -1.1037 H   0  0  0  0  0  0  0  0  0  0  0  0
   -0.8415   -2.3727    0.1140 H   0  0  0  0  0  0  0  0  0  0  0  0
   -6.5923    0.5906    0.9607 H   0  0  0  0  0  0  0  0  0  0  0  0
   -6.3021    2.1564   -0.9525 H   0  0  0  0  0  0  0  0  0  0  0  0
   -4.1771    2.1872   -2.2291 H   0  0  0  0  0  0  0  0  0  0  0  0
   -2.3250    0.6717   -1.6286 H   0  0  0  0  0  0  0  0  0  0  0  0
  1  2  1  0
  2  3  2  0
  3  4  1  0
  4  5  1  0
  5  6  1  0
  6  7  2  0
  6  8  1  0
  8  9  1  0
  9 10  1  0
 10 11  1  0
 11 12  2  0
 11 13  1  0
 13 14  1  0
 14 15  2  0
 15 16  1  0
 16 17  2  0
 17 18  1  0
 18 19  2  0
  4 20  2  0
 20 21  1  0
 21  2  1  0
 19 10  1  0
 19 14  1  0
  1 22  1  0
  1 23  1  0
  1 24  1  0
  3 25  1  0
  5 26  1  0
  8 27  1  0
  8 28  1  0
  9 29  1  0
  9 30  1  0
 15 31  1  0
 16 32  1  0
 17 33  1  0
 18 34  1  0
M  END
