
     RDKit          3D

 31 33  0  0  0  0  0  0  0  0999 V2000
    4.6032   -2.2073    0.1689 C   0  0  0  0  0  0  0  0  0  0  0  0
    3.5903   -1.1021    0.3428 C   0  0  0  0  0  0  0  0  0  0  0  0
    2.4436   -1.0723   -0.6141 C   0  0  0  0  0  0  0  0  0  0  0  0
    1.5117   -0.1153   -0.4376 C   0  0  0  0  0  0  0  0  0  0  0  0
    0.4137    0.0052   -1.2895 N   0  0  0  0  0  0  0  0  0  0  0  0
   -0.9522    0.0701   -0.9192 C   0  0  0  0  0  0  0  0  0  0  0  0
   -1.4166   -0.0758    0.3938 C   0  0  0  0  0  0  0  0  0  0  0  0
   -2.7813    0.0275    0.6970 C   0  0  0  0  0  0  0  0  0  0  0  0
   -3.7120    0.2988   -0.3085 C   0  0  0  0  0  0  0  0  0  0  0  0
   -5.1758    0.3902   -0.0081 C   0  0  0  0  0  0  0  0  0  0  0  0
   -3.2483    0.4466   -1.6146 C   0  0  0  0  0  0  0  0  0  0  0  0
   -4.1162    0.6934   -2.6068 F   0  0  0  0  0  0  0  0  0  0  0  0
   -1.8927    0.3442   -1.9208 C   0  0  0  0  0  0  0  0  0  0  0  0
    1.7330    0.8309    0.5979 N   0  0  0  0  0  0  0  0  0  0  0  0
    1.0168    1.9366    0.9482 N   0  0  0  0  0  0  0  0  0  0  0  0
    1.7172    2.4184    1.9708 C   0  0  0  0  0  0  0  0  0  0  0  0
    2.8322    1.7232    2.3097 N   0  0  0  0  0  0  0  0  0  0  0  0
    2.8540    0.7354    1.4414 C   0  0  0  0  0  0  0  0  0  0  0  0
    3.7792   -0.2576    1.3097 N   0  0  0  0  0  0  0  0  0  0  0  0
    4.6350   -2.8130    1.0793 H   0  0  0  0  0  0  0  0  0  0  0  0
    4.3543   -2.8536   -0.6765 H   0  0  0  0  0  0  0  0  0  0  0  0
    5.5904   -1.7678   -0.0015 H   0  0  0  0  0  0  0  0  0  0  0  0
    2.3874   -1.8239   -1.3893 H   0  0  0  0  0  0  0  0  0  0  0  0
    0.5108   -0.5076   -2.1628 H   0  0  0  0  0  0  0  0  0  0  0  0
   -0.7321   -0.2827    1.2113 H   0  0  0  0  0  0  0  0  0  0  0  0
   -3.1041   -0.0984    1.7283 H   0  0  0  0  0  0  0  0  0  0  0  0
   -5.6291    1.2283   -0.5477 H   0  0  0  0  0  0  0  0  0  0  0  0
   -5.3519    0.5577    1.0596 H   0  0  0  0  0  0  0  0  0  0  0  0
   -5.6774   -0.5374   -0.3008 H   0  0  0  0  0  0  0  0  0  0  0  0
   -1.5840    0.4937   -2.9506 H   0  0  0  0  0  0  0  0  0  0  0  0
    1.4012    3.3146    2.4898 H   0  0  0  0  0  0  0  0  0  0  0  0
  1  2  1  0
  2  3  1  0
  3  4  2  0
  4  5  1  0
  5  6  1  0
  6  7  2  0
  7  8  1  0
  8  9  2  0
  9 10  1  0
  9 11  1  0
 11 12  1  0
 11 13  2  0
  4 14  1  0
 14 15  1  0
 15 16  2  0
 16 17  1  0
 17 18  2  0
 18 19  1  0
 19  2  2  0
 13  6  1  0
 18 14  1  0
  1 20  1  0
  1 21  1  0
  1 22  1  0
  3 23  1  0
  5 24  1  0
  7 25  1  0
  8 26  1  0
 10 27  1  0
 10 28  1  0
 10 29  1  0
 13 30  1  0
 16 31  1  0
M  END
