
     RDKit          3D

 29 31  0  0  0  0  0  0  0  0999 V2000
   -3.5654   -2.0577   -0.3880 C   0  0  0  0  0  0  0  0  0  0  0  0
   -2.9133   -0.7037   -0.2510 C   0  0  0  0  0  0  0  0  0  0  0  0
   -1.4609   -0.6818    0.1085 C   0  0  0  0  0  0  0  0  0  0  0  0
   -0.8700    0.5235    0.2071 C   0  0  0  0  0  0  0  0  0  0  0  0
    0.4536    0.7668    0.5565 N   0  0  0  0  0  0  0  0  0  0  0  0
    1.6142    0.0349    0.2329 C   0  0  0  0  0  0  0  0  0  0  0  0
    1.6600   -0.9576   -0.7544 C   0  0  0  0  0  0  0  0  0  0  0  0
    2.8368   -1.6724   -1.0033 C   0  0  0  0  0  0  0  0  0  0  0  0
    3.9836   -1.4087   -0.2604 C   0  0  0  0  0  0  0  0  0  0  0  0
    3.9476   -0.4312    0.7234 C   0  0  0  0  0  0  0  0  0  0  0  0
    5.0899   -0.2042    1.4333 O   0  0  0  0  0  0  0  0  0  0  0  0
    2.7798    0.2872    0.9746 C   0  0  0  0  0  0  0  0  0  0  0  0
   -1.6819    1.6603    0.0074 N   0  0  0  0  0  0  0  0  0  0  0  0
   -1.3289    2.9746    0.0924 N   0  0  0  0  0  0  0  0  0  0  0  0
   -2.4814    3.5809   -0.1926 C   0  0  0  0  0  0  0  0  0  0  0  0
   -3.5403    2.7651   -0.4450 N   0  0  0  0  0  0  0  0  0  0  0  0
   -3.0380    1.5562   -0.3158 C   0  0  0  0  0  0  0  0  0  0  0  0
   -3.6525    0.3466   -0.4513 N   0  0  0  0  0  0  0  0  0  0  0  0
   -4.3698   -2.1456    0.3482 H   0  0  0  0  0  0  0  0  0  0  0  0
   -2.8498   -2.8681   -0.2283 H   0  0  0  0  0  0  0  0  0  0  0  0
   -3.9889   -2.1540   -1.3920 H   0  0  0  0  0  0  0  0  0  0  0  0
   -0.9486   -1.6146    0.2988 H   0  0  0  0  0  0  0  0  0  0  0  0
    0.6433    1.7664    0.6801 H   0  0  0  0  0  0  0  0  0  0  0  0
    0.7956   -1.1697   -1.3757 H   0  0  0  0  0  0  0  0  0  0  0  0
    2.8587   -2.4302   -1.7822 H   0  0  0  0  0  0  0  0  0  0  0  0
    4.9005   -1.9599   -0.4486 H   0  0  0  0  0  0  0  0  0  0  0  0
    4.9197    0.4957    2.0848 H   0  0  0  0  0  0  0  0  0  0  0  0
    2.7602    1.0399    1.7571 H   0  0  0  0  0  0  0  0  0  0  0  0
   -2.5540    4.6612   -0.2166 H   0  0  0  0  0  0  0  0  0  0  0  0
  1  2  1  0
  2  3  1  0
  3  4  2  0
  4  5  1  0
  5  6  1  0
  6  7  2  0
  7  8  1  0
  8  9  2  0
  9 10  1  0
 10 11  1  0
 10 12  2  0
  4 13  1  0
 13 14  1  0
 14 15  2  0
 15 16  1  0
 16 17  2  0
 17 18  1  0
 18  2  2  0
 12  6  1  0
 17 13  1  0
  1 19  1  0
  1 20  1  0
  1 21  1  0
  3 22  1  0
  5 23  1  0
  7 24  1  0
  8 25  1  0
  9 26  1  0
 11 27  1  0
 12 28  1  0
 15 29  1  0
M  END
