
     RDKit          3D

 41 42  0  0  0  0  0  0  0  0999 V2000
    6.0842    1.1710   -0.7849 C   0  0  0  0  0  0  0  0  0  0  0  0
    4.9005    0.3743   -0.3140 C   0  0  0  0  0  0  0  0  0  0  0  0
    3.6076    0.8199   -0.6382 C   0  0  0  0  0  0  0  0  0  0  0  0
    2.4626    0.1252   -0.2238 C   0  0  0  0  0  0  0  0  0  0  0  0
    1.2852    0.6961   -0.6169 O   0  0  0  0  0  0  0  0  0  0  0  0
    0.0780    0.0551   -0.2211 C   0  0  0  0  0  0  0  0  0  0  0  0
   -1.1511    0.8325   -0.7198 C   0  0  0  0  0  0  0  0  0  0  0  0
   -1.0423    1.9512   -1.2261 O   0  0  0  0  0  0  0  0  0  0  0  0
   -2.3984    0.2090   -0.5677 N   0  0  0  0  0  0  0  0  0  0  0  0
   -2.5680   -1.0946    0.0709 C   0  0  0  0  0  0  0  0  0  0  0  0
   -3.9617   -1.4222    0.6053 C   0  0  0  0  0  0  0  0  0  0  0  0
   -4.5180   -0.3607    1.5531 C   0  0  0  0  0  0  0  0  0  0  0  0
   -5.2294    0.7808    0.8285 C   0  0  0  0  0  0  0  0  0  0  0  0
   -4.3302    1.6574   -0.0404 C   0  0  0  0  0  0  0  0  0  0  0  0
   -3.5715    0.8875   -1.1175 C   0  0  0  0  0  0  0  0  0  0  0  0
    2.5986   -1.0429    0.5256 C   0  0  0  0  0  0  0  0  0  0  0  0
    3.8718   -1.5174    0.8517 C   0  0  0  0  0  0  0  0  0  0  0  0
    5.0096   -0.8155    0.4247 C   0  0  0  0  0  0  0  0  0  0  0  0
    6.3118   -1.3711    0.7821 N   0  0  0  0  0  4  0  0  0  0  0  0
    6.4635   -1.7407    1.9552 O   0  0  0  0  0  0  0  0  0  0  0  0
    7.1649   -1.4606   -0.1107 O   0  0  0  0  0  1  0  0  0  0  0  0
    5.7863    2.1803   -1.0896 H   0  0  0  0  0  0  0  0  0  0  0  0
    6.8197    1.2898    0.0172 H   0  0  0  0  0  0  0  0  0  0  0  0
    6.5515    0.6842   -1.6463 H   0  0  0  0  0  0  0  0  0  0  0  0
    3.4756    1.7312   -1.2219 H   0  0  0  0  0  0  0  0  0  0  0  0
    0.0441   -0.9510   -0.6538 H   0  0  0  0  0  0  0  0  0  0  0  0
    0.0229    0.0246    0.8730 H   0  0  0  0  0  0  0  0  0  0  0  0
   -2.2838   -1.8494   -0.6720 H   0  0  0  0  0  0  0  0  0  0  0  0
   -1.8547   -1.1788    0.8971 H   0  0  0  0  0  0  0  0  0  0  0  0
   -4.6609   -1.6027   -0.2196 H   0  0  0  0  0  0  0  0  0  0  0  0
   -3.8889   -2.3719    1.1505 H   0  0  0  0  0  0  0  0  0  0  0  0
   -3.7287    0.0313    2.2052 H   0  0  0  0  0  0  0  0  0  0  0  0
   -5.2542   -0.8430    2.2084 H   0  0  0  0  0  0  0  0  0  0  0  0
   -5.7121    1.4207    1.5776 H   0  0  0  0  0  0  0  0  0  0  0  0
   -6.0382    0.3698    0.2110 H   0  0  0  0  0  0  0  0  0  0  0  0
   -3.6291    2.2107    0.5965 H   0  0  0  0  0  0  0  0  0  0  0  0
   -4.9676    2.4039   -0.5302 H   0  0  0  0  0  0  0  0  0  0  0  0
   -3.2508    1.5995   -1.8865 H   0  0  0  0  0  0  0  0  0  0  0  0
   -4.2068    0.1580   -1.6316 H   0  0  0  0  0  0  0  0  0  0  0  0
    1.7394   -1.6092    0.8694 H   0  0  0  0  0  0  0  0  0  0  0  0
    3.9687   -2.4326    1.4330 H   0  0  0  0  0  0  0  0  0  0  0  0
  1  2  1  0
  2  3  2  0
  3  4  1  0
  4  5  1  0
  5  6  1  0
  6  7  1  0
  7  8  2  0
  7  9  1  0
  9 10  1  0
 10 11  1  0
 11 12  1  0
 12 13  1  0
 13 14  1  0
 14 15  1  0
  4 16  2  0
 16 17  1  0
 17 18  2  0
 18 19  1  0
 19 20  2  0
 19 21  1  0
 18  2  1  0
 15  9  1  0
  1 22  1  0
  1 23  1  0
  1 24  1  0
  3 25  1  0
  6 26  1  0
  6 27  1  0
 10 28  1  0
 10 29  1  0
 11 30  1  0
 11 31  1  0
 12 32  1  0
 12 33  1  0
 13 34  1  0
 13 35  1  0
 14 36  1  0
 14 37  1  0
 15 38  1  0
 15 39  1  0
 16 40  1  0
 17 41  1  0
M  CHG  2  19   1  21  -1
M  END
