
     RDKit          3D

 50 51  0  0  0  0  0  0  0  0999 V2000
   -3.6354    0.3557    3.2608 C   0  0  0  0  0  0  0  0  0  0  0  0
   -3.2620    0.4027    1.8038 C   0  0  0  0  0  0  0  0  0  0  0  0
   -2.0827    1.0793    1.4390 C   0  0  0  0  0  0  0  0  0  0  0  0
   -1.6649    1.1696    0.1091 C   0  0  0  0  0  0  0  0  0  0  0  0
   -0.5004    1.8599   -0.0711 O   0  0  0  0  0  0  0  0  0  0  0  0
    0.0134    2.0238   -1.3941 C   0  0  0  0  0  0  0  0  0  0  0  0
    0.8667    0.8274   -1.8312 C   0  0  0  0  0  0  0  0  0  0  0  0
    1.9874    0.5656   -0.9815 O   0  0  0  0  0  0  0  0  0  0  0  0
    2.9998    1.5723   -1.0327 C   0  0  0  0  0  0  0  0  0  0  0  0
    4.2806    1.0726   -0.3377 C   0  0  0  0  0  0  0  0  0  0  0  0
    5.2177    0.3681   -1.2437 N   0  0  0  0  0  0  0  0  0  0  0  0
    6.4639    0.0233   -0.5381 C   0  0  0  0  0  0  0  0  0  0  0  0
    6.1979   -1.2972    0.1725 C   0  0  0  0  0  0  0  0  0  0  0  0
    5.0236   -1.9182   -0.5712 C   0  0  0  0  0  0  0  0  0  0  0  0
    4.7080   -0.9384   -1.6911 C   0  0  0  0  0  0  0  0  0  0  0  0
   -2.4377    0.5717   -0.8777 C   0  0  0  0  0  0  0  0  0  0  0  0
   -3.6129   -0.1059   -0.5339 C   0  0  0  0  0  0  0  0  0  0  0  0
   -4.0464   -0.2048    0.8018 C   0  0  0  0  0  0  0  0  0  0  0  0
   -5.3344   -0.9554    1.1212 C   0  0  0  0  0  0  0  0  0  0  0  0
   -6.5506   -0.2764    0.4835 C   0  0  0  0  0  0  0  0  0  0  0  0
   -5.2498   -2.4271    0.7036 C   0  0  0  0  0  0  0  0  0  0  0  0
   -4.6082    0.8314    3.4189 H   0  0  0  0  0  0  0  0  0  0  0  0
   -2.9080    0.8890    3.8819 H   0  0  0  0  0  0  0  0  0  0  0  0
   -3.6666   -0.6801    3.6126 H   0  0  0  0  0  0  0  0  0  0  0  0
   -1.4679    1.5487    2.2054 H   0  0  0  0  0  0  0  0  0  0  0  0
    0.6333    2.9259   -1.3651 H   0  0  0  0  0  0  0  0  0  0  0  0
   -0.7816    2.2396   -2.1166 H   0  0  0  0  0  0  0  0  0  0  0  0
    1.2186    0.9663   -2.8598 H   0  0  0  0  0  0  0  0  0  0  0  0
    0.2618   -0.0843   -1.8170 H   0  0  0  0  0  0  0  0  0  0  0  0
    3.2083    1.8658   -2.0682 H   0  0  0  0  0  0  0  0  0  0  0  0
    2.6373    2.4517   -0.4898 H   0  0  0  0  0  0  0  0  0  0  0  0
    4.8017    1.9655    0.0304 H   0  0  0  0  0  0  0  0  0  0  0  0
    4.0185    0.4612    0.5341 H   0  0  0  0  0  0  0  0  0  0  0  0
    7.2571   -0.1165   -1.2837 H   0  0  0  0  0  0  0  0  0  0  0  0
    6.8120    0.8048    0.1463 H   0  0  0  0  0  0  0  0  0  0  0  0
    7.0789   -1.9469    0.1509 H   0  0  0  0  0  0  0  0  0  0  0  0
    5.9289   -1.1300    1.2219 H   0  0  0  0  0  0  0  0  0  0  0  0
    5.2701   -2.9103   -0.9620 H   0  0  0  0  0  0  0  0  0  0  0  0
    4.1679   -2.0256    0.1052 H   0  0  0  0  0  0  0  0  0  0  0  0
    3.6531   -0.9486   -1.9747 H   0  0  0  0  0  0  0  0  0  0  0  0
    5.2642   -1.2299   -2.5917 H   0  0  0  0  0  0  0  0  0  0  0  0
   -2.1628    0.6013   -1.9253 H   0  0  0  0  0  0  0  0  0  0  0  0
   -4.1933   -0.5635   -1.3324 H   0  0  0  0  0  0  0  0  0  0  0  0
   -5.5081   -0.9519    2.2022 H   0  0  0  0  0  0  0  0  0  0  0  0
   -6.5084   -0.2992   -0.6107 H   0  0  0  0  0  0  0  0  0  0  0  0
   -7.4751   -0.7783    0.7896 H   0  0  0  0  0  0  0  0  0  0  0  0
   -6.6200    0.7723    0.7939 H   0  0  0  0  0  0  0  0  0  0  0  0
   -6.1449   -2.9696    1.0279 H   0  0  0  0  0  0  0  0  0  0  0  0
   -5.1688   -2.5439   -0.3825 H   0  0  0  0  0  0  0  0  0  0  0  0
   -4.3796   -2.9136    1.1589 H   0  0  0  0  0  0  0  0  0  0  0  0
  1  2  1  0
  2  3  2  0
  3  4  1  0
  4  5  1  0
  5  6  1  0
  6  7  1  0
  7  8  1  0
  8  9  1  0
  9 10  1  0
 10 11  1  0
 11 12  1  0
 12 13  1  0
 13 14  1  0
 14 15  1  0
  4 16  2  0
 16 17  1  0
 17 18  2  0
 18 19  1  0
 19 20  1  0
 19 21  1  0
 18  2  1  0
 15 11  1  0
  1 22  1  0
  1 23  1  0
  1 24  1  0
  3 25  1  0
  6 26  1  0
  6 27  1  0
  7 28  1  0
  7 29  1  0
  9 30  1  0
  9 31  1  0
 10 32  1  0
 10 33  1  0
 12 34  1  0
 12 35  1  0
 13 36  1  0
 13 37  1  0
 14 38  1  0
 14 39  1  0
 15 40  1  0
 15 41  1  0
 16 42  1  0
 17 43  1  0
 19 44  1  0
 20 45  1  0
 20 46  1  0
 20 47  1  0
 21 48  1  0
 21 49  1  0
 21 50  1  0
M  END
