
     RDKit          3D

 29 30  0  0  0  0  0  0  0  0999 V2000
   -1.3416   -2.0785    1.2541 C   0  0  0  0  0  0  0  0  0  0  0  0
   -1.7104   -1.1041    0.1733 C   0  0  0  0  0  0  0  0  0  0  0  0
   -3.0042   -0.6086    0.0982 C   0  0  0  0  0  0  0  0  0  0  0  0
   -3.3116    0.3009   -0.9085 C   0  0  0  0  0  0  0  0  0  0  0  0
   -2.3232    0.6972   -1.8157 C   0  0  0  0  0  0  0  0  0  0  0  0
   -2.6663    1.6302   -2.8455 C   0  0  0  0  0  0  0  0  0  0  0  0
   -2.9933    2.3840   -3.6654 N   0  0  0  0  0  0  0  0  0  0  0  0
   -1.0430    0.1594   -1.6775 C   0  0  0  0  0  0  0  0  0  0  0  0
    0.2863    0.6153   -2.7907 S   0  0  0  0  0  0  0  0  0  0  0  0
    1.6910   -0.3567   -2.1562 C   0  0  0  0  0  0  0  0  0  0  0  0
    2.3549    0.3446   -0.9787 C   0  0  0  0  0  0  0  0  0  0  0  0
    3.3383    1.0597   -1.1495 O   0  0  0  0  0  0  0  0  0  0  0  0
    1.7392    0.0611    0.2170 N   0  0  0  0  0  0  0  0  0  0  0  0
    2.0729    0.5070    1.4658 C   0  0  0  0  0  0  0  0  0  0  0  0
    1.3182    0.2316    2.5061 N   0  0  0  0  0  0  0  0  0  0  0  0
    1.8766    0.7910    3.6391 C   0  0  0  0  0  0  0  0  0  0  0  0
    3.0553    1.4764    3.4424 C   0  0  0  0  0  0  0  0  0  0  0  0
    3.4778    1.4161    1.7835 S   0  0  0  0  0  0  0  0  0  0  0  0
   -0.7337   -0.7310   -0.6944 N   0  0  0  0  0  0  0  0  0  0  0  0
   -0.2945   -2.3844    1.1628 H   0  0  0  0  0  0  0  0  0  0  0  0
   -1.9649   -2.9753    1.1832 H   0  0  0  0  0  0  0  0  0  0  0  0
   -1.4799   -1.6202    2.2381 H   0  0  0  0  0  0  0  0  0  0  0  0
   -3.7640   -0.9191    0.8100 H   0  0  0  0  0  0  0  0  0  0  0  0
   -4.3222    0.6992   -0.9811 H   0  0  0  0  0  0  0  0  0  0  0  0
    1.4059   -1.3818   -1.8993 H   0  0  0  0  0  0  0  0  0  0  0  0
    2.4348   -0.4347   -2.9570 H   0  0  0  0  0  0  0  0  0  0  0  0
    0.8539   -0.4374    0.1855 H   0  0  0  0  0  0  0  0  0  0  0  0
    1.3792    0.6673    4.5932 H   0  0  0  0  0  0  0  0  0  0  0  0
    3.6686    1.9910    4.1672 H   0  0  0  0  0  0  0  0  0  0  0  0
  1  2  1  0
  2  3  2  0
  3  4  1  0
  4  5  2  0
  5  6  1  0
  6  7  3  0
  5  8  1  0
  8  9  1  0
  9 10  1  0
 10 11  1  0
 11 12  2  0
 11 13  1  0
 13 14  1  0
 14 15  2  0
 15 16  1  0
 16 17  2  0
 17 18  1  0
  8 19  2  0
 19  2  1  0
 18 14  1  0
  1 20  1  0
  1 21  1  0
  1 22  1  0
  3 23  1  0
  4 24  1  0
 10 25  1  0
 10 26  1  0
 13 27  1  0
 16 28  1  0
 17 29  1  0
M  END
