
     RDKit          3D

 31 32  0  0  0  0  0  0  0  0999 V2000
   -4.6804    0.9302   -0.3183 C   0  0  0  0  0  0  0  0  0  0  0  0
   -3.3150    0.3202   -0.2019 C   0  0  0  0  0  0  0  0  0  0  0  0
   -2.2154    0.9088   -0.8371 C   0  0  0  0  0  0  0  0  0  0  0  0
   -0.9356    0.3593   -0.7015 C   0  0  0  0  0  0  0  0  0  0  0  0
   -0.7353   -0.7809    0.0896 C   0  0  0  0  0  0  0  0  0  0  0  0
    0.6144   -1.3919    0.2500 C   0  0  0  0  0  0  0  0  0  0  0  0
    0.7298   -2.5150    0.7387 O   0  0  0  0  0  0  0  0  0  0  0  0
    1.8347   -0.7151   -0.2267 C   0  0  0  0  0  0  0  0  0  0  0  0
    2.4722   -1.2936   -1.3351 C   0  0  0  0  0  0  0  0  0  0  0  0
    3.6163   -0.7040   -1.8706 C   0  0  0  0  0  0  0  0  0  0  0  0
    4.1321    0.4565   -1.2979 C   0  0  0  0  0  0  0  0  0  0  0  0
    3.5119    1.0234   -0.1808 C   0  0  0  0  0  0  0  0  0  0  0  0
    2.3593    0.4394    0.3716 C   0  0  0  0  0  0  0  0  0  0  0  0
    1.7448    1.0227    1.5892 C   0  0  0  0  0  0  0  0  0  0  0  0
    0.9677    0.4792    2.3474 O   0  0  0  0  0  0  0  0  0  0  0  0
    2.1217    2.2989    1.7894 O   0  0  0  0  0  0  0  0  0  0  0  0
   -1.8407   -1.3673    0.7229 C   0  0  0  0  0  0  0  0  0  0  0  0
   -1.7503   -2.4947    1.4971 O   0  0  0  0  0  0  0  0  0  0  0  0
   -3.1152   -0.8176    0.5878 C   0  0  0  0  0  0  0  0  0  0  0  0
   -5.4583    0.1622   -0.2532 H   0  0  0  0  0  0  0  0  0  0  0  0
   -4.8022    1.4341   -1.2829 H   0  0  0  0  0  0  0  0  0  0  0  0
   -4.8340    1.6590    0.4834 H   0  0  0  0  0  0  0  0  0  0  0  0
   -2.3500    1.8003   -1.4467 H   0  0  0  0  0  0  0  0  0  0  0  0
   -0.1170    0.8387   -1.2299 H   0  0  0  0  0  0  0  0  0  0  0  0
    2.0769   -2.2055   -1.7795 H   0  0  0  0  0  0  0  0  0  0  0  0
    4.1086   -1.1534   -2.7303 H   0  0  0  0  0  0  0  0  0  0  0  0
    5.0281    0.9147   -1.7116 H   0  0  0  0  0  0  0  0  0  0  0  0
    3.9481    1.9168    0.2625 H   0  0  0  0  0  0  0  0  0  0  0  0
    1.6459    2.5561    2.6085 H   0  0  0  0  0  0  0  0  0  0  0  0
   -0.8129   -2.7937    1.4770 H   0  0  0  0  0  0  0  0  0  0  0  0
   -3.9502   -1.2876    1.1024 H   0  0  0  0  0  0  0  0  0  0  0  0
  1  2  1  0
  2  3  2  0
  3  4  1  0
  4  5  2  0
  5  6  1  0
  6  7  2  0
  6  8  1  0
  8  9  2  0
  9 10  1  0
 10 11  2  0
 11 12  1  0
 12 13  2  0
 13 14  1  0
 14 15  2  0
 14 16  1  0
  5 17  1  0
 17 18  1  0
 17 19  2  0
 19  2  1  0
 13  8  1  0
  1 20  1  0
  1 21  1  0
  1 22  1  0
  3 23  1  0
  4 24  1  0
  9 25  1  0
 10 26  1  0
 11 27  1  0
 12 28  1  0
 16 29  1  0
 18 30  1  0
 19 31  1  0
M  END
