
     RDKit          3D

 35 37  0  0  0  0  0  0  0  0999 V2000
    7.1570   -0.5071    1.4634 C   0  0  0  0  0  0  0  0  0  0  0  0
    6.0217    0.1629    0.7994 C   0  0  0  0  0  0  0  0  0  0  0  0
    5.8588    1.3912    0.2026 C   0  0  0  0  0  0  0  0  0  0  0  0
    4.5163    1.4366   -0.2513 C   0  0  0  0  0  0  0  0  0  0  0  0
    3.9286    0.2290    0.0936 C   0  0  0  0  0  0  0  0  0  0  0  0
    2.5945   -0.3348   -0.0875 C   0  0  0  0  0  0  0  0  0  0  0  0
    2.3040   -1.4533    0.3248 O   0  0  0  0  0  0  0  0  0  0  0  0
    1.7299    0.5076   -0.7546 N   0  0  0  0  0  0  0  0  0  0  0  0
    0.4181    0.2777   -1.0740 C   0  0  0  0  0  0  0  0  0  0  0  0
   -0.2765    1.1855   -1.7201 N   0  0  0  0  0  0  0  0  0  0  0  0
   -1.5653    0.7268   -1.9149 C   0  0  0  0  0  0  0  0  0  0  0  0
   -1.8327   -0.5330   -1.4177 C   0  0  0  0  0  0  0  0  0  0  0  0
   -3.1000   -1.3244   -1.4613 C   0  0  0  0  0  0  0  0  0  0  0  0
   -4.1693   -0.7652   -0.5481 C   0  0  0  0  0  0  0  0  0  0  0  0
   -5.2078    0.0267   -1.0647 C   0  0  0  0  0  0  0  0  0  0  0  0
   -6.1829    0.5520   -0.2152 C   0  0  0  0  0  0  0  0  0  0  0  0
   -6.1192    0.2902    1.1481 C   0  0  0  0  0  0  0  0  0  0  0  0
   -7.0559    0.7962    1.9609 F   0  0  0  0  0  0  0  0  0  0  0  0
   -5.0981   -0.4870    1.6802 C   0  0  0  0  0  0  0  0  0  0  0  0
   -4.1218   -1.0142    0.8339 C   0  0  0  0  0  0  0  0  0  0  0  0
   -0.4138   -1.1534   -0.6817 S   0  0  0  0  0  0  0  0  0  0  0  0
    4.8621   -0.5434    0.7375 O   0  0  0  0  0  0  0  0  0  0  0  0
    7.4089   -1.4373    0.9451 H   0  0  0  0  0  0  0  0  0  0  0  0
    6.9065   -0.7458    2.5016 H   0  0  0  0  0  0  0  0  0  0  0  0
    8.0443    0.1334    1.4653 H   0  0  0  0  0  0  0  0  0  0  0  0
    6.6139    2.1594    0.1069 H   0  0  0  0  0  0  0  0  0  0  0  0
    4.0496    2.2632   -0.7671 H   0  0  0  0  0  0  0  0  0  0  0  0
    2.0454    1.4114   -1.0664 H   0  0  0  0  0  0  0  0  0  0  0  0
   -2.2784    1.3599   -2.4296 H   0  0  0  0  0  0  0  0  0  0  0  0
   -3.4717   -1.3449   -2.4942 H   0  0  0  0  0  0  0  0  0  0  0  0
   -2.9250   -2.3755   -1.1971 H   0  0  0  0  0  0  0  0  0  0  0  0
   -5.2643    0.2390   -2.1300 H   0  0  0  0  0  0  0  0  0  0  0  0
   -6.9896    1.1635   -0.6063 H   0  0  0  0  0  0  0  0  0  0  0  0
   -5.0663   -0.6754    2.7485 H   0  0  0  0  0  0  0  0  0  0  0  0
   -3.3209   -1.6175    1.2575 H   0  0  0  0  0  0  0  0  0  0  0  0
  1  2  1  0
  2  3  2  0
  3  4  1  0
  4  5  2  0
  5  6  1  0
  6  7  2  0
  6  8  1  0
  8  9  1  0
  9 10  2  0
 10 11  1  0
 11 12  2  0
 12 13  1  0
 13 14  1  0
 14 15  2  0
 15 16  1  0
 16 17  2  0
 17 18  1  0
 17 19  1  0
 19 20  2  0
 12 21  1  0
  5 22  1  0
 22  2  1  0
 21  9  1  0
 20 14  1  0
  1 23  1  0
  1 24  1  0
  1 25  1  0
  3 26  1  0
  4 27  1  0
  8 28  1  0
 11 29  1  0
 13 30  1  0
 13 31  1  0
 15 32  1  0
 16 33  1  0
 19 34  1  0
 20 35  1  0
M  END
