
     RDKit          3D

 44 50  0  0  0  0  0  0  0  0999 V2000
   -4.9147    1.9281    2.2995 Si  0  0  0  0  0  4  0  0  0  0  0  0
   -5.9655    0.6712    1.3926 C   0  0  0  0  0  0  0  0  0  0  0  0
   -5.2063   -0.0768    0.5709 C   0  0  0  0  0  0  0  0  0  0  0  0
   -5.6960   -1.1407   -0.2803 C   0  0  0  0  0  0  0  0  0  0  0  0
   -4.8178   -1.8039   -1.0547 C   0  0  0  0  0  0  0  0  0  0  0  0
   -3.3921   -1.4835   -1.0618 C   0  0  0  0  0  0  0  0  0  0  0  0
   -2.8442   -0.5077   -0.2954 C   0  0  0  0  0  0  0  0  0  0  0  0
   -1.3983   -0.2621   -0.3818 C   0  0  0  0  0  0  0  0  0  0  0  0
   -0.5849   -0.9565    0.4515 C   0  0  0  0  0  0  0  0  0  0  0  0
    0.8289   -0.7364    0.4013 C   0  0  0  0  0  0  0  0  0  0  0  0
    1.8955   -1.5898    1.4281 S   0  0  0  0  0  0  0  0  0  0  0  0
    3.2676   -0.7543    0.7297 C   0  0  0  0  0  0  0  0  0  0  0  0
    4.6850   -0.8032    0.9605 C   0  0  0  0  0  0  0  0  0  0  0  0
    5.4468   -1.5796    1.8676 C   0  0  0  0  0  0  0  0  0  0  0  0
    6.8374   -1.4494    1.9080 C   0  0  0  0  0  0  0  0  0  0  0  0
    7.4811   -0.5591    1.0603 C   0  0  0  0  0  0  0  0  0  0  0  0
    6.7502    0.2171    0.1573 C   0  0  0  0  0  0  0  0  0  0  0  0
    5.3464    0.0865    0.1156 C   0  0  0  0  0  0  0  0  0  0  0  0
    4.2767    0.9500   -0.9215 S   0  0  0  0  0  0  0  0  0  0  0  0
    2.8927    0.1338   -0.2449 C   0  0  0  0  0  0  0  0  0  0  0  0
    1.4784    0.1507   -0.4417 C   0  0  0  0  0  0  0  0  0  0  0  0
    0.6919    0.9285   -1.3511 C   0  0  0  0  0  0  0  0  0  0  0  0
    1.0979    1.8463   -2.2492 C   0  0  0  0  0  0  0  0  0  0  0  0
   -0.3484    2.5711   -3.1818 Si  0  0  0  0  0  4  0  0  0  0  0  0
   -1.4766    1.4717   -2.1883 C   0  0  0  0  0  0  0  0  0  0  0  0
   -0.7860    0.7100   -1.3132 C   0  0  0  0  0  0  0  0  0  0  0  0
   -3.7601    0.2514    0.5702 C   0  0  0  0  0  0  0  0  0  0  0  0
   -3.4193    1.2592    1.3995 C   0  0  0  0  0  0  0  0  0  0  0  0
   -5.2406    3.3203    1.9062 H   0  0  0  0  0  0  0  0  0  0  0  0
   -4.8645    1.6701    3.7589 H   0  0  0  0  0  0  0  0  0  0  0  0
   -7.0300    0.6039    1.5485 H   0  0  0  0  0  0  0  0  0  0  0  0
   -6.7518   -1.3857   -0.2820 H   0  0  0  0  0  0  0  0  0  0  0  0
   -5.1517   -2.6068   -1.7047 H   0  0  0  0  0  0  0  0  0  0  0  0
   -2.7727   -2.0772   -1.7299 H   0  0  0  0  0  0  0  0  0  0  0  0
   -0.9903   -1.6747    1.1591 H   0  0  0  0  0  0  0  0  0  0  0  0
    4.9513   -2.2799    2.5359 H   0  0  0  0  0  0  0  0  0  0  0  0
    7.4149   -2.0491    2.6074 H   0  0  0  0  0  0  0  0  0  0  0  0
    8.5638   -0.4628    1.0971 H   0  0  0  0  0  0  0  0  0  0  0  0
    7.2600    0.9125   -0.5041 H   0  0  0  0  0  0  0  0  0  0  0  0
    2.1005    2.1756   -2.4607 H   0  0  0  0  0  0  0  0  0  0  0  0
   -0.3276    2.2135   -4.6204 H   0  0  0  0  0  0  0  0  0  0  0  0
   -0.5471    4.0097   -2.8833 H   0  0  0  0  0  0  0  0  0  0  0  0
   -2.5451    1.4892   -2.3369 H   0  0  0  0  0  0  0  0  0  0  0  0
   -2.4354    1.6698    1.5621 H   0  0  0  0  0  0  0  0  0  0  0  0
  1  2  1  0
  2  3  2  0
  3  4  1  0
  4  5  2  0
  5  6  1  0
  6  7  2  0
  7  8  1  0
  8  9  2  0
  9 10  1  0
 10 11  1  0
 11 12  1  0
 12 13  1  0
 13 14  2  0
 14 15  1  0
 15 16  2  0
 16 17  1  0
 17 18  2  0
 18 19  1  0
 19 20  1  0
 20 21  1  0
 21 22  1  0
 22 23  2  0
 23 24  1  0
 24 25  1  0
 25 26  2  0
  7 27  1  0
 27 28  2  0
 28  1  1  0
 27  3  1  0
 26  8  1  0
 21 10  2  0
 26 22  1  0
 20 12  2  0
 18 13  1  0
  1 29  1  0
  1 30  1  0
  2 31  1  0
  4 32  1  0
  5 33  1  0
  6 34  1  0
  9 35  1  0
 14 36  1  0
 15 37  1  0
 16 38  1  0
 17 39  1  0
 23 40  1  0
 24 41  1  0
 24 42  1  0
 25 43  1  0
 28 44  1  0
M  END
