
     RDKit          3D

 37 39  0  0  0  0  0  0  0  0999 V2000
    6.4364   -0.1978    0.4748 C   0  0  0  0  0  0  0  0  0  0  0  0
    4.9604   -0.1134    0.2222 C   0  0  0  0  0  0  0  0  0  0  0  0
    4.4655    0.6382   -0.8484 C   0  0  0  0  0  0  0  0  0  0  0  0
    3.0879    0.7435   -1.0662 C   0  0  0  0  0  0  0  0  0  0  0  0
    2.1806    0.0989   -0.2171 C   0  0  0  0  0  0  0  0  0  0  0  0
    0.7252    0.2033   -0.3907 C   0  0  0  0  0  0  0  0  0  0  0  0
    0.1176    0.2243   -1.5872 C   0  0  0  0  0  0  0  0  0  0  0  0
   -1.3572    0.3512   -1.7716 C   0  0  0  0  0  0  0  0  0  0  0  0
   -1.7405    0.9040   -2.8020 O   0  0  0  0  0  0  0  0  0  0  0  0
   -2.2672   -0.1459   -0.7678 C   0  0  0  0  0  0  0  0  0  0  0  0
   -2.2587   -1.3340   -0.0453 C   0  0  0  0  0  0  0  0  0  0  0  0
   -1.3259   -2.4858   -0.1146 C   0  0  0  0  0  0  0  0  0  0  0  0
   -3.3186   -1.3898    0.8281 N   0  0  0  0  0  0  0  0  0  0  0  0
   -4.0057   -0.2896    0.6212 C   0  0  0  0  0  0  0  0  0  0  0  0
   -5.2053    0.1862    1.2231 C   0  0  0  0  0  0  0  0  0  0  0  0
   -5.7310    1.3627    0.8322 C   0  0  0  0  0  0  0  0  0  0  0  0
   -5.0992    2.1683   -0.1991 C   0  0  0  0  0  0  0  0  0  0  0  0
   -3.9655    1.7257   -0.7688 C   0  0  0  0  0  0  0  0  0  0  0  0
   -3.4210    0.5032   -0.3630 N   0  0  0  0  0  0  0  0  0  0  0  0
    2.6783   -0.6261    0.8724 C   0  0  0  0  0  0  0  0  0  0  0  0
    4.0554   -0.7323    1.0902 C   0  0  0  0  0  0  0  0  0  0  0  0
    6.9970   -0.1447   -0.4645 H   0  0  0  0  0  0  0  0  0  0  0  0
    6.7529    0.6251    1.1230 H   0  0  0  0  0  0  0  0  0  0  0  0
    6.6968   -1.1471    0.9546 H   0  0  0  0  0  0  0  0  0  0  0  0
    5.1494    1.1528   -1.5200 H   0  0  0  0  0  0  0  0  0  0  0  0
    2.7394    1.3489   -1.8994 H   0  0  0  0  0  0  0  0  0  0  0  0
    0.1521    0.2539    0.5325 H   0  0  0  0  0  0  0  0  0  0  0  0
    0.6739    0.2097   -2.5187 H   0  0  0  0  0  0  0  0  0  0  0  0
   -1.8549   -3.4188    0.1056 H   0  0  0  0  0  0  0  0  0  0  0  0
   -0.5228   -2.3716    0.6192 H   0  0  0  0  0  0  0  0  0  0  0  0
   -0.8843   -2.5842   -1.1106 H   0  0  0  0  0  0  0  0  0  0  0  0
   -5.6737   -0.4199    1.9900 H   0  0  0  0  0  0  0  0  0  0  0  0
   -6.6465    1.7369    1.2804 H   0  0  0  0  0  0  0  0  0  0  0  0
   -5.5565    3.1085   -0.4886 H   0  0  0  0  0  0  0  0  0  0  0  0
   -3.4491    2.2791   -1.5435 H   0  0  0  0  0  0  0  0  0  0  0  0
    1.9997   -1.1218    1.5634 H   0  0  0  0  0  0  0  0  0  0  0  0
    4.4154   -1.3017    1.9443 H   0  0  0  0  0  0  0  0  0  0  0  0
  1  2  1  0
  2  3  2  0
  3  4  1  0
  4  5  2  0
  5  6  1  0
  6  7  2  3
  7  8  1  0
  8  9  2  0
  8 10  1  0
 10 11  2  0
 11 12  1  0
 11 13  1  0
 13 14  2  0
 14 15  1  0
 15 16  2  0
 16 17  1  0
 17 18  2  0
 18 19  1  0
  5 20  1  0
 20 21  2  0
 21  2  1  0
 19 10  1  0
 19 14  1  0
  1 22  1  0
  1 23  1  0
  1 24  1  0
  3 25  1  0
  4 26  1  0
  6 27  1  0
  7 28  1  0
 12 29  1  0
 12 30  1  0
 12 31  1  0
 15 32  1  0
 16 33  1  0
 17 34  1  0
 18 35  1  0
 20 36  1  0
 21 37  1  0
M  END
