
     RDKit          3D

 32 34  0  0  0  0  0  0  0  0999 V2000
    3.8863   -1.5644    1.5982 C   0  0  0  0  0  0  0  0  0  0  0  0
    3.3310   -1.1447    0.2809 C   0  0  0  0  0  0  0  0  0  0  0  0
    3.9855   -1.0126   -0.9251 C   0  0  0  0  0  0  0  0  0  0  0  0
    3.1115   -0.5843   -1.9663 C   0  0  0  0  0  0  0  0  0  0  0  0
    1.8229   -0.3686   -1.5176 C   0  0  0  0  0  0  0  0  0  0  0  0
    0.6877    0.0309   -2.3218 C   0  0  0  0  0  0  0  0  0  0  0  0
   -0.3282    0.7941   -2.0320 N   0  0  0  0  0  0  0  0  0  0  0  0
   -0.3054    1.4935   -0.8681 N   0  0  0  0  0  0  0  0  0  0  0  0
   -1.2500    1.4578    0.1244 C   0  0  0  0  0  0  0  0  0  0  0  0
   -2.3477    0.4724    0.1652 C   0  0  0  0  0  0  0  0  0  0  0  0
   -2.7375   -0.0266    1.4152 C   0  0  0  0  0  0  0  0  0  0  0  0
   -3.7781   -0.9523    1.5100 C   0  0  0  0  0  0  0  0  0  0  0  0
   -4.4416   -1.3740    0.3588 C   0  0  0  0  0  0  0  0  0  0  0  0
   -4.0713   -0.8658   -0.8859 C   0  0  0  0  0  0  0  0  0  0  0  0
   -3.0297    0.0601   -0.9840 C   0  0  0  0  0  0  0  0  0  0  0  0
   -1.0665    2.3582    1.0576 N   0  0  0  0  0  0  0  0  0  0  0  0
    0.0298    3.0685    0.6417 N   0  0  0  0  0  0  0  0  0  0  0  0
    0.4815    2.5974   -0.5899 C   0  0  0  0  0  0  0  0  0  0  0  0
    1.6917    3.3220   -1.4655 S   0  0  0  0  0  0  0  0  0  0  0  0
    1.6706   -0.7643    0.1384 S   0  0  0  0  0  0  0  0  0  0  0  0
    3.3983   -2.4786    1.9520 H   0  0  0  0  0  0  0  0  0  0  0  0
    3.7441   -0.7790    2.3479 H   0  0  0  0  0  0  0  0  0  0  0  0
    4.9602   -1.7654    1.5237 H   0  0  0  0  0  0  0  0  0  0  0  0
    5.0420   -1.2141   -1.0582 H   0  0  0  0  0  0  0  0  0  0  0  0
    3.4241   -0.4206   -2.9910 H   0  0  0  0  0  0  0  0  0  0  0  0
    0.6789   -0.3928   -3.3418 H   0  0  0  0  0  0  0  0  0  0  0  0
   -2.2284    0.3008    2.3194 H   0  0  0  0  0  0  0  0  0  0  0  0
   -4.0724   -1.3402    2.4819 H   0  0  0  0  0  0  0  0  0  0  0  0
   -5.2543   -2.0925    0.4326 H   0  0  0  0  0  0  0  0  0  0  0  0
   -4.5996   -1.1837   -1.7814 H   0  0  0  0  0  0  0  0  0  0  0  0
   -2.7789    0.4661   -1.9597 H   0  0  0  0  0  0  0  0  0  0  0  0
    0.3435    3.9026    1.1222 H   0  0  0  0  0  0  0  0  0  0  0  0
  1  2  1  0
  2  3  2  0
  3  4  1  0
  4  5  2  0
  5  6  1  0
  6  7  2  3
  7  8  1  0
  8  9  1  0
  9 10  1  0
 10 11  2  0
 11 12  1  0
 12 13  2  0
 13 14  1  0
 14 15  2  0
  9 16  2  0
 16 17  1  0
 17 18  1  0
 18 19  2  0
  5 20  1  0
 20  2  1  0
 18  8  1  0
 15 10  1  0
  1 21  1  0
  1 22  1  0
  1 23  1  0
  3 24  1  0
  4 25  1  0
  6 26  1  0
 11 27  1  0
 12 28  1  0
 13 29  1  0
 14 30  1  0
 15 31  1  0
 17 32  1  0
M  END
