
     RDKit          3D

 35 36  0  0  0  0  0  0  0  0999 V2000
   -2.3705    1.1802    2.0985 C   0  0  0  0  0  0  0  0  0  0  0  0
   -2.4786   -0.2825    1.9293 C   0  0  0  0  0  0  0  0  0  0  0  0
   -3.0362   -1.2840    2.6922 C   0  0  0  0  0  0  0  0  0  0  0  0
   -2.8167   -2.4908    1.9841 C   0  0  0  0  0  0  0  0  0  0  0  0
   -2.1356   -2.1580    0.8283 C   0  0  0  0  0  0  0  0  0  0  0  0
   -1.6713   -2.9849   -0.2579 C   0  0  0  0  0  0  0  0  0  0  0  0
   -1.0172   -2.6369   -1.3284 N   0  0  0  0  0  0  0  0  0  0  0  0
   -0.6705   -1.3275   -1.4853 N   0  0  0  0  0  0  0  0  0  0  0  0
    0.0251   -0.9224   -2.6134 C   0  0  0  0  0  0  0  0  0  0  0  0
    0.3372   -1.6514   -3.5551 O   0  0  0  0  0  0  0  0  0  0  0  0
    0.3435    0.5499   -2.6316 C   0  0  0  0  0  0  0  0  0  0  0  0
    1.2093    0.9135   -1.5269 N   0  0  0  0  0  0  0  0  0  0  0  0
    0.6437    1.3982   -0.3984 N   0  0  0  0  0  0  0  0  0  0  0  0
    1.6843    1.6444    0.4100 C   0  0  0  0  0  0  0  0  0  0  0  0
    1.4600    2.2062    1.7639 C   0  0  0  0  0  0  0  0  0  0  0  0
    2.8993    1.2913   -0.2103 C   0  0  0  0  0  0  0  0  0  0  0  0
    4.5978    1.4462    0.5635 Br  0  0  0  0  0  0  0  0  0  0  0  0
    2.5780    0.8203   -1.4613 C   0  0  0  0  0  0  0  0  0  0  0  0
    3.4146    0.2954   -2.5693 C   0  0  0  0  0  0  0  0  0  0  0  0
   -1.9267   -0.8066    0.8012 O   0  0  0  0  0  0  0  0  0  0  0  0
   -3.3079    1.5931    2.4839 H   0  0  0  0  0  0  0  0  0  0  0  0
   -2.1497    1.6749    1.1476 H   0  0  0  0  0  0  0  0  0  0  0  0
   -1.5724    1.4213    2.8067 H   0  0  0  0  0  0  0  0  0  0  0  0
   -3.5414   -1.1578    3.6402 H   0  0  0  0  0  0  0  0  0  0  0  0
   -3.1222   -3.4853    2.2792 H   0  0  0  0  0  0  0  0  0  0  0  0
   -1.9118   -4.0584   -0.1715 H   0  0  0  0  0  0  0  0  0  0  0  0
   -0.8417   -0.6735   -0.7152 H   0  0  0  0  0  0  0  0  0  0  0  0
   -0.5806    1.1340   -2.5660 H   0  0  0  0  0  0  0  0  0  0  0  0
    0.8478    0.8163   -3.5656 H   0  0  0  0  0  0  0  0  0  0  0  0
    1.5802    1.4271    2.5235 H   0  0  0  0  0  0  0  0  0  0  0  0
    2.1699    3.0117    1.9757 H   0  0  0  0  0  0  0  0  0  0  0  0
    0.4531    2.6247    1.8597 H   0  0  0  0  0  0  0  0  0  0  0  0
    3.3667    0.9629   -3.4353 H   0  0  0  0  0  0  0  0  0  0  0  0
    3.0759   -0.6988   -2.8764 H   0  0  0  0  0  0  0  0  0  0  0  0
    4.4644    0.2072   -2.2748 H   0  0  0  0  0  0  0  0  0  0  0  0
  1  2  1  0
  2  3  2  0
  3  4  1  0
  4  5  2  0
  5  6  1  0
  6  7  2  3
  7  8  1  0
  8  9  1  0
  9 10  2  0
  9 11  1  0
 11 12  1  0
 12 13  1  0
 13 14  2  0
 14 15  1  0
 14 16  1  0
 16 17  1  0
 16 18  2  0
 18 19  1  0
  5 20  1  0
 20  2  1  0
 18 12  1  0
  1 21  1  0
  1 22  1  0
  1 23  1  0
  3 24  1  0
  4 25  1  0
  6 26  1  0
  8 27  1  0
 11 28  1  0
 11 29  1  0
 15 30  1  0
 15 31  1  0
 15 32  1  0
 19 33  1  0
 19 34  1  0
 19 35  1  0
M  END
