
     RDKit          3D

 40 41  0  0  0  0  0  0  0  0999 V2000
    4.6651   -0.7566   -1.6896 C   0  0  0  0  0  0  0  0  0  0  0  0
    3.4131   -0.2960   -1.0059 C   0  0  0  0  0  0  0  0  0  0  0  0
    2.2622   -0.0127   -1.7431 C   0  0  0  0  0  0  0  0  0  0  0  0
    1.0794    0.3871   -1.1056 C   0  0  0  0  0  0  0  0  0  0  0  0
    1.0031    0.5078    0.2870 C   0  0  0  0  0  0  0  0  0  0  0  0
   -0.2488    0.9420    1.0627 C   0  0  0  0  0  0  0  0  0  0  0  0
    0.2085    1.9630    1.9866 O   0  0  0  0  0  0  0  0  0  0  0  0
   -0.7926   -0.2090    1.9419 C   0  0  0  0  0  0  0  0  0  0  0  0
   -1.6871   -1.2187    1.2007 C   0  0  0  0  0  0  0  0  0  0  0  0
   -0.8894   -2.2092    0.3430 C   0  0  0  0  0  0  0  0  0  0  0  0
   -2.7773   -0.5175    0.5021 N   0  0  0  0  0  0  0  0  0  0  0  0
   -3.7187   -1.4203   -0.1551 C   0  0  0  0  0  0  0  0  0  0  0  0
   -2.3197    0.5341   -0.4109 C   0  0  0  0  0  0  0  0  0  0  0  0
   -1.4608    1.5750    0.3234 C   0  0  0  0  0  0  0  0  0  0  0  0
   -1.1370    2.7855   -0.5610 C   0  0  0  0  0  0  0  0  0  0  0  0
    2.1738    0.1989    1.0144 C   0  0  0  0  0  0  0  0  0  0  0  0
    3.3559   -0.2000    0.3834 C   0  0  0  0  0  0  0  0  0  0  0  0
    4.6590   -1.8465   -1.7874 H   0  0  0  0  0  0  0  0  0  0  0  0
    4.7518   -0.3120   -2.6866 H   0  0  0  0  0  0  0  0  0  0  0  0
    5.5529   -0.4570   -1.1227 H   0  0  0  0  0  0  0  0  0  0  0  0
    2.2726   -0.1036   -2.8275 H   0  0  0  0  0  0  0  0  0  0  0  0
    0.2253    0.5774   -1.7438 H   0  0  0  0  0  0  0  0  0  0  0  0
    0.8697    2.5000    1.5163 H   0  0  0  0  0  0  0  0  0  0  0  0
    0.0156   -0.7360    2.4647 H   0  0  0  0  0  0  0  0  0  0  0  0
   -1.3893    0.2350    2.7539 H   0  0  0  0  0  0  0  0  0  0  0  0
   -2.1543   -1.8216    1.9924 H   0  0  0  0  0  0  0  0  0  0  0  0
   -0.0114   -2.5760    0.8853 H   0  0  0  0  0  0  0  0  0  0  0  0
   -1.4995   -3.0846    0.0940 H   0  0  0  0  0  0  0  0  0  0  0  0
   -0.5505   -1.7761   -0.5998 H   0  0  0  0  0  0  0  0  0  0  0  0
   -4.0789   -2.1833    0.5436 H   0  0  0  0  0  0  0  0  0  0  0  0
   -4.6022   -0.8675   -0.4938 H   0  0  0  0  0  0  0  0  0  0  0  0
   -3.2817   -1.9222   -1.0251 H   0  0  0  0  0  0  0  0  0  0  0  0
   -1.7949    0.1053   -1.2692 H   0  0  0  0  0  0  0  0  0  0  0  0
   -3.1980    1.0521   -0.8185 H   0  0  0  0  0  0  0  0  0  0  0  0
   -2.1059    1.9973    1.1123 H   0  0  0  0  0  0  0  0  0  0  0  0
   -0.5255    3.5186   -0.0261 H   0  0  0  0  0  0  0  0  0  0  0  0
   -0.6197    2.5182   -1.4837 H   0  0  0  0  0  0  0  0  0  0  0  0
   -2.0642    3.2913   -0.8547 H   0  0  0  0  0  0  0  0  0  0  0  0
    2.1706    0.2708    2.1023 H   0  0  0  0  0  0  0  0  0  0  0  0
    4.2286   -0.4329    0.9894 H   0  0  0  0  0  0  0  0  0  0  0  0
  1  2  1  0
  2  3  2  0
  3  4  1  0
  4  5  2  0
  5  6  1  0
  6  7  1  0
  6  8  1  0
  8  9  1  0
  9 10  1  0
  9 11  1  0
 11 12  1  0
 11 13  1  0
 13 14  1  0
 14 15  1  0
  5 16  1  0
 16 17  2  0
 17  2  1  0
 14  6  1  0
  1 18  1  0
  1 19  1  0
  1 20  1  0
  3 21  1  0
  4 22  1  0
  7 23  1  0
  8 24  1  0
  8 25  1  0
  9 26  1  0
 10 27  1  0
 10 28  1  0
 10 29  1  0
 12 30  1  0
 12 31  1  0
 12 32  1  0
 13 33  1  0
 13 34  1  0
 14 35  1  0
 15 36  1  0
 15 37  1  0
 15 38  1  0
 16 39  1  0
 17 40  1  0
M  END
