
     RDKit          3D

 39 44  0  0  0  0  0  0  0  0999 V2000
   -4.4854   -3.0638    0.8600 Si  0  0  0  0  0  4  0  0  0  0  0  0
   -5.6487   -1.6098    0.6588 C   0  0  0  0  0  0  0  0  0  0  0  0
   -4.9804   -0.5261    0.2224 C   0  0  0  0  0  0  0  0  0  0  0  0
   -5.5705    0.7702   -0.0434 C   0  0  0  0  0  0  0  0  0  0  0  0
   -4.7766    1.7660   -0.4797 C   0  0  0  0  0  0  0  0  0  0  0  0
   -3.3419    1.5803   -0.6917 C   0  0  0  0  0  0  0  0  0  0  0  0
   -2.7142    0.4015   -0.4668 C   0  0  0  0  0  0  0  0  0  0  0  0
   -1.2622    0.3351   -0.7135 C   0  0  0  0  0  0  0  0  0  0  0  0
   -0.7867   -0.0140   -1.9835 C   0  0  0  0  0  0  0  0  0  0  0  0
    0.5868   -0.0925   -2.2429 C   0  0  0  0  0  0  0  0  0  0  0  0
    1.4854    0.1839   -1.2013 C   0  0  0  0  0  0  0  0  0  0  0  0
    1.0051    0.5306    0.0710 C   0  0  0  0  0  0  0  0  0  0  0  0
   -0.3689    0.6108    0.3360 C   0  0  0  0  0  0  0  0  0  0  0  0
    2.0786    0.7515    0.9201 N   0  0  0  0  0  0  0  0  0  0  0  0
    3.2328    0.5538    0.2149 C   0  0  0  0  0  0  0  0  0  0  0  0
    4.6171    0.5604    0.2747 C   0  0  0  0  0  0  0  0  0  0  0  0
    6.0833    0.8390    1.3460 Si  0  0  0  0  0  4  0  0  0  0  0  0
    7.1871    0.4219   -0.1728 C   0  0  0  0  0  0  0  0  0  0  0  0
    6.4473    0.1323   -1.2661 C   0  0  0  0  0  0  0  0  0  0  0  0
    5.0503    0.2153   -0.9942 C   0  0  0  0  0  0  0  0  0  0  0  0
    3.9877   -0.0029   -1.8303 O   0  0  0  0  0  0  0  0  0  0  0  0
    2.8851    0.2152   -1.0505 C   0  0  0  0  0  0  0  0  0  0  0  0
   -3.5257   -0.7228    0.0088 C   0  0  0  0  0  0  0  0  0  0  0  0
   -3.0858   -1.9672    0.2849 C   0  0  0  0  0  0  0  0  0  0  0  0
   -4.7841   -4.1589   -0.0943 H   0  0  0  0  0  0  0  0  0  0  0  0
   -4.3414   -3.4745    2.2780 H   0  0  0  0  0  0  0  0  0  0  0  0
   -6.7012   -1.6906    0.8764 H   0  0  0  0  0  0  0  0  0  0  0  0
   -6.6331    0.9182    0.1097 H   0  0  0  0  0  0  0  0  0  0  0  0
   -5.1880    2.7485   -0.6894 H   0  0  0  0  0  0  0  0  0  0  0  0
   -2.7921    2.4491   -1.0452 H   0  0  0  0  0  0  0  0  0  0  0  0
   -1.4892   -0.2321   -2.7854 H   0  0  0  0  0  0  0  0  0  0  0  0
    0.9503   -0.3636   -3.2294 H   0  0  0  0  0  0  0  0  0  0  0  0
   -0.7365    0.8750    1.3231 H   0  0  0  0  0  0  0  0  0  0  0  0
    2.0412    1.0142    1.8956 H   0  0  0  0  0  0  0  0  0  0  0  0
    6.2849    2.2462    1.7712 H   0  0  0  0  0  0  0  0  0  0  0  0
    6.2681   -0.1664    2.4215 H   0  0  0  0  0  0  0  0  0  0  0  0
    8.2619    0.4368   -0.0901 H   0  0  0  0  0  0  0  0  0  0  0  0
    6.8360   -0.1328   -2.2396 H   0  0  0  0  0  0  0  0  0  0  0  0
   -2.0762   -2.3375    0.2015 H   0  0  0  0  0  0  0  0  0  0  0  0
  1  2  1  0
  2  3  2  0
  3  4  1  0
  4  5  2  0
  5  6  1  0
  6  7  2  0
  7  8  1  0
  8  9  2  0
  9 10  1  0
 10 11  2  0
 11 12  1  0
 12 13  2  0
 12 14  1  0
 14 15  1  0
 15 16  1  0
 16 17  1  0
 17 18  1  0
 18 19  2  0
 19 20  1  0
 20 21  1  0
 21 22  1  0
  7 23  1  0
 23 24  2  0
 24  1  1  0
 23  3  1  0
 13  8  1  0
 22 15  2  0
 22 11  1  0
 20 16  2  0
  1 25  1  0
  1 26  1  0
  2 27  1  0
  4 28  1  0
  5 29  1  0
  6 30  1  0
  9 31  1  0
 10 32  1  0
 13 33  1  0
 14 34  1  0
 17 35  1  0
 17 36  1  0
 18 37  1  0
 19 38  1  0
 24 39  1  0
M  END
