
     RDKit          3D

 50 55  0  0  0  0  0  0  0  0999 V2000
    9.8881   -0.9224    0.4604 C   0  0  0  0  0  0  0  0  0  0  0  0
    8.4974   -0.4022    0.3404 C   0  0  0  0  0  0  0  0  0  0  0  0
    8.0410    0.8810    0.5417 C   0  0  0  0  0  0  0  0  0  0  0  0
    6.6340    0.9900    0.3330 C   0  0  0  0  0  0  0  0  0  0  0  0
    6.0429   -0.2114   -0.0244 C   0  0  0  0  0  0  0  0  0  0  0  0
    4.6462   -0.4707   -0.3153 C   0  0  0  0  0  0  0  0  0  0  0  0
    4.0903   -1.5998   -0.8903 C   0  0  0  0  0  0  0  0  0  0  0  0
    2.6738   -1.5130   -1.0298 C   0  0  0  0  0  0  0  0  0  0  0  0
    2.1673   -0.3161   -0.5647 C   0  0  0  0  0  0  0  0  0  0  0  0
    0.7698    0.1294   -0.5198 C   0  0  0  0  0  0  0  0  0  0  0  0
    0.3876    1.3822   -0.9659 C   0  0  0  0  0  0  0  0  0  0  0  0
   -0.9572    1.7553   -0.9231 C   0  0  0  0  0  0  0  0  0  0  0  0
   -0.2304   -0.7255   -0.0361 C   0  0  0  0  0  0  0  0  0  0  0  0
   -1.6143   -0.3811    0.0262 C   0  0  0  0  0  0  0  0  0  0  0  0
   -1.9909    0.9058   -0.4387 C   0  0  0  0  0  0  0  0  0  0  0  0
   -3.3687    1.3064   -0.4098 C   0  0  0  0  0  0  0  0  0  0  0  0
   -3.8058    2.5780   -0.8762 C   0  0  0  0  0  0  0  0  0  0  0  0
   -5.1396    2.9862   -0.8584 C   0  0  0  0  0  0  0  0  0  0  0  0
   -6.1071    2.1379   -0.3572 C   0  0  0  0  0  0  0  0  0  0  0  0
   -7.5527    2.5343   -0.3581 C   0  0  0  0  0  0  0  0  0  0  0  0
   -5.7094    0.8743    0.0944 C   0  0  0  0  0  0  0  0  0  0  0  0
   -4.3567    0.4196    0.0919 C   0  0  0  0  0  0  0  0  0  0  0  0
   -3.9760   -0.8800    0.5688 C   0  0  0  0  0  0  0  0  0  0  0  0
   -4.9205   -1.8127    1.0879 C   0  0  0  0  0  0  0  0  0  0  0  0
   -4.5715   -3.0795    1.5531 C   0  0  0  0  0  0  0  0  0  0  0  0
   -3.2514   -3.4666    1.5182 C   0  0  0  0  0  0  0  0  0  0  0  0
   -2.2967   -2.5818    1.0196 C   0  0  0  0  0  0  0  0  0  0  0  0
   -2.6124   -1.2791    0.5346 C   0  0  0  0  0  0  0  0  0  0  0  0
    3.4191    0.6779    0.0475 S   0  0  0  0  0  0  0  0  0  0  0  0
    7.2265   -1.4592   -0.0920 S   0  0  0  0  0  0  0  0  0  0  0  0
    9.9619   -1.6369    1.2870 H   0  0  0  0  0  0  0  0  0  0  0  0
   10.5944   -0.1085    0.6558 H   0  0  0  0  0  0  0  0  0  0  0  0
   10.2013   -1.4231   -0.4620 H   0  0  0  0  0  0  0  0  0  0  0  0
    8.6804    1.7085    0.8257 H   0  0  0  0  0  0  0  0  0  0  0  0
    6.0896    1.9209    0.4390 H   0  0  0  0  0  0  0  0  0  0  0  0
    4.6668   -2.4609   -1.2073 H   0  0  0  0  0  0  0  0  0  0  0  0
    2.0595   -2.2945   -1.4618 H   0  0  0  0  0  0  0  0  0  0  0  0
    1.1181    2.0834   -1.3626 H   0  0  0  0  0  0  0  0  0  0  0  0
   -1.1743    2.7540   -1.2906 H   0  0  0  0  0  0  0  0  0  0  0  0
    0.1043   -1.6969    0.3164 H   0  0  0  0  0  0  0  0  0  0  0  0
   -3.1041    3.3009   -1.2800 H   0  0  0  0  0  0  0  0  0  0  0  0
   -5.4038    3.9690   -1.2400 H   0  0  0  0  0  0  0  0  0  0  0  0
   -8.0249    2.2248   -1.2969 H   0  0  0  0  0  0  0  0  0  0  0  0
   -8.0872    2.0720    0.4791 H   0  0  0  0  0  0  0  0  0  0  0  0
   -7.6597    3.6191   -0.2512 H   0  0  0  0  0  0  0  0  0  0  0  0
   -6.5042    0.2306    0.4591 H   0  0  0  0  0  0  0  0  0  0  0  0
   -5.9773   -1.5705    1.1461 H   0  0  0  0  0  0  0  0  0  0  0  0
   -5.3339   -3.7506    1.9388 H   0  0  0  0  0  0  0  0  0  0  0  0
   -2.9543   -4.4484    1.8758 H   0  0  0  0  0  0  0  0  0  0  0  0
   -1.2753   -2.9500    1.0238 H   0  0  0  0  0  0  0  0  0  0  0  0
  1  2  1  0
  2  3  2  0
  3  4  1  0
  4  5  2  0
  5  6  1  0
  6  7  2  0
  7  8  1  0
  8  9  2  0
  9 10  1  0
 10 11  2  0
 11 12  1  0
 10 13  1  0
 13 14  2  0
 14 15  1  0
 15 16  1  0
 16 17  2  0
 17 18  1  0
 18 19  2  0
 19 20  1  0
 19 21  1  0
 16 22  1  0
 22 23  1  0
 23 24  2  0
 24 25  1  0
 25 26  2  0
 26 27  1  0
 27 28  2  0
  9 29  1  0
  5 30  1  0
 30  2  1  0
 29  6  1  0
 15 12  2  0
 28 14  1  0
 22 21  2  0
 28 23  1  0
  1 31  1  0
  1 32  1  0
  1 33  1  0
  3 34  1  0
  4 35  1  0
  7 36  1  0
  8 37  1  0
 11 38  1  0
 12 39  1  0
 13 40  1  0
 17 41  1  0
 18 42  1  0
 20 43  1  0
 20 44  1  0
 20 45  1  0
 21 46  1  0
 24 47  1  0
 25 48  1  0
 26 49  1  0
 27 50  1  0
M  END
