
     RDKit          3D

 43 47  0  0  0  0  0  0  0  0999 V2000
    9.3377    0.6430   -0.1843 C   0  0  0  0  0  0  0  0  0  0  0  0
    7.8869    0.6796    0.1529 C   0  0  0  0  0  0  0  0  0  0  0  0
    7.2622    1.3416    1.1867 C   0  0  0  0  0  0  0  0  0  0  0  0
    5.8505    1.1372    1.1804 C   0  0  0  0  0  0  0  0  0  0  0  0
    5.4228    0.3230    0.1437 C   0  0  0  0  0  0  0  0  0  0  0  0
    4.0687   -0.0946   -0.1690 C   0  0  0  0  0  0  0  0  0  0  0  0
    3.6437   -0.9203   -1.1955 C   0  0  0  0  0  0  0  0  0  0  0  0
    2.2307   -1.1165   -1.2064 C   0  0  0  0  0  0  0  0  0  0  0  0
    1.5948   -0.4454   -0.1817 C   0  0  0  0  0  0  0  0  0  0  0  0
    0.1591   -0.3883    0.1234 C   0  0  0  0  0  0  0  0  0  0  0  0
   -0.7619   -0.1935   -0.9118 C   0  0  0  0  0  0  0  0  0  0  0  0
   -2.1039   -0.1587   -0.5749 C   0  0  0  0  0  0  0  0  0  0  0  0
   -3.4377    0.0741   -1.6982 S   0  0  0  0  0  6  0  0  0  0  0  0
   -3.5368   -1.0987   -2.5395 O   0  0  0  0  0  0  0  0  0  0  0  0
   -3.3873    1.4308   -2.1974 O   0  0  0  0  0  0  0  0  0  0  0  0
   -0.3180   -0.5478    1.4466 C   0  0  0  0  0  0  0  0  0  0  0  0
   -1.6896   -0.5072    1.7533 C   0  0  0  0  0  0  0  0  0  0  0  0
   -2.6034   -0.3090    0.7303 C   0  0  0  0  0  0  0  0  0  0  0  0
   -4.0643   -0.2317    0.8030 C   0  0  0  0  0  0  0  0  0  0  0  0
   -4.8875   -0.3408    1.9140 C   0  0  0  0  0  0  0  0  0  0  0  0
   -6.2781   -0.2349    1.7478 C   0  0  0  0  0  0  0  0  0  0  0  0
   -4.6719   -0.0221   -0.4481 C   0  0  0  0  0  0  0  0  0  0  0  0
   -6.0364    0.0870   -0.6476 C   0  0  0  0  0  0  0  0  0  0  0  0
   -6.8575   -0.0098    0.4796 C   0  0  0  0  0  0  0  0  0  0  0  0
   -8.3499    0.0671    0.3342 C   0  0  0  0  0  0  0  0  0  0  0  0
    2.7230    0.4268    0.7662 S   0  0  0  0  0  0  0  0  0  0  0  0
    6.7671   -0.1795   -0.8083 S   0  0  0  0  0  0  0  0  0  0  0  0
    9.5150    1.0573   -1.1824 H   0  0  0  0  0  0  0  0  0  0  0  0
    9.9207    1.2328    0.5311 H   0  0  0  0  0  0  0  0  0  0  0  0
    9.7174   -0.3839   -0.1585 H   0  0  0  0  0  0  0  0  0  0  0  0
    7.7867    1.9472    1.9167 H   0  0  0  0  0  0  0  0  0  0  0  0
    5.1863    1.5779    1.9146 H   0  0  0  0  0  0  0  0  0  0  0  0
    4.3095   -1.3732   -1.9201 H   0  0  0  0  0  0  0  0  0  0  0  0
    1.7126   -1.7320   -1.9323 H   0  0  0  0  0  0  0  0  0  0  0  0
   -0.4493   -0.0615   -1.9431 H   0  0  0  0  0  0  0  0  0  0  0  0
    0.3860   -0.7185    2.2605 H   0  0  0  0  0  0  0  0  0  0  0  0
   -2.0097   -0.6347    2.7832 H   0  0  0  0  0  0  0  0  0  0  0  0
   -4.4802   -0.5083    2.9068 H   0  0  0  0  0  0  0  0  0  0  0  0
   -6.9188   -0.3284    2.6241 H   0  0  0  0  0  0  0  0  0  0  0  0
   -6.4431    0.2430   -1.6421 H   0  0  0  0  0  0  0  0  0  0  0  0
   -8.8140    0.4435    1.2524 H   0  0  0  0  0  0  0  0  0  0  0  0
   -8.6265    0.7529   -0.4743 H   0  0  0  0  0  0  0  0  0  0  0  0
   -8.7557   -0.9254    0.1136 H   0  0  0  0  0  0  0  0  0  0  0  0
  1  2  1  0
  2  3  2  0
  3  4  1  0
  4  5  2  0
  5  6  1  0
  6  7  2  0
  7  8  1  0
  8  9  2  0
  9 10  1  0
 10 11  2  0
 11 12  1  0
 12 13  1  0
 13 14  2  0
 13 15  2  0
 10 16  1  0
 16 17  2  0
 17 18  1  0
 18 19  1  0
 19 20  2  0
 20 21  1  0
 19 22  1  0
 22 23  2  0
 23 24  1  0
 24 25  1  0
  9 26  1  0
  5 27  1  0
 27  2  1  0
 26  6  1  0
 18 12  2  0
 22 13  1  0
 24 21  2  0
  1 28  1  0
  1 29  1  0
  1 30  1  0
  3 31  1  0
  4 32  1  0
  7 33  1  0
  8 34  1  0
 11 35  1  0
 16 36  1  0
 17 37  1  0
 20 38  1  0
 21 39  1  0
 23 40  1  0
 25 41  1  0
 25 42  1  0
 25 43  1  0
M  END
