
     RDKit          3D

 41 45  0  0  0  0  0  0  0  0999 V2000
   -8.4837    2.2393    0.2084 C   0  0  0  0  0  0  0  0  0  0  0  0
   -7.4537    1.1644    0.2615 C   0  0  0  0  0  0  0  0  0  0  0  0
   -7.6125   -0.1613    0.5987 C   0  0  0  0  0  0  0  0  0  0  0  0
   -6.3839   -0.8825    0.5328 C   0  0  0  0  0  0  0  0  0  0  0  0
   -5.3118   -0.0934    0.1515 C   0  0  0  0  0  0  0  0  0  0  0  0
   -3.9390   -0.5255   -0.0187 C   0  0  0  0  0  0  0  0  0  0  0  0
   -3.5024   -1.8238   -0.2144 C   0  0  0  0  0  0  0  0  0  0  0  0
   -2.0847   -1.9211   -0.3359 C   0  0  0  0  0  0  0  0  0  0  0  0
   -1.4585   -0.6945   -0.2354 C   0  0  0  0  0  0  0  0  0  0  0  0
   -0.0217   -0.3918   -0.2935 C   0  0  0  0  0  0  0  0  0  0  0  0
    0.8853   -1.1966    0.4128 C   0  0  0  0  0  0  0  0  0  0  0  0
    2.2675   -0.9177    0.3512 C   0  0  0  0  0  0  0  0  0  0  0  0
    3.5220   -1.7767    1.1453 S   0  0  0  0  0  0  0  0  0  0  0  0
    0.4689    0.6693   -1.0546 C   0  0  0  0  0  0  0  0  0  0  0  0
    1.8418    0.9414   -1.1131 C   0  0  0  0  0  0  0  0  0  0  0  0
    2.7712    0.1417   -0.4015 C   0  0  0  0  0  0  0  0  0  0  0  0
    4.2172    0.2310   -0.3122 C   0  0  0  0  0  0  0  0  0  0  0  0
    5.1219    1.1476   -0.9071 C   0  0  0  0  0  0  0  0  0  0  0  0
    6.4990    1.0459   -0.6809 C   0  0  0  0  0  0  0  0  0  0  0  0
    4.7504   -0.7653    0.5047 C   0  0  0  0  0  0  0  0  0  0  0  0
    6.1377   -0.8728    0.7372 C   0  0  0  0  0  0  0  0  0  0  0  0
    7.0134    0.0348    0.1259 C   0  0  0  0  0  0  0  0  0  0  0  0
    8.4884   -0.0487    0.3911 C   0  0  0  0  0  0  0  0  0  0  0  0
   -2.6037    0.5532    0.0243 S   0  0  0  0  0  0  0  0  0  0  0  0
   -5.8297    1.5213   -0.1294 S   0  0  0  0  0  0  0  0  0  0  0  0
   -9.4693    1.8505    0.4851 H   0  0  0  0  0  0  0  0  0  0  0  0
   -8.2366    3.0491    0.9028 H   0  0  0  0  0  0  0  0  0  0  0  0
   -8.5597    2.6552   -0.8017 H   0  0  0  0  0  0  0  0  0  0  0  0
   -8.5626   -0.5986    0.8814 H   0  0  0  0  0  0  0  0  0  0  0  0
   -6.2987   -1.9364    0.7668 H   0  0  0  0  0  0  0  0  0  0  0  0
   -4.1664   -2.6769   -0.2783 H   0  0  0  0  0  0  0  0  0  0  0  0
   -1.5534   -2.8509   -0.5006 H   0  0  0  0  0  0  0  0  0  0  0  0
    0.5326   -2.0267    1.0198 H   0  0  0  0  0  0  0  0  0  0  0  0
   -0.2088    1.3007   -1.6260 H   0  0  0  0  0  0  0  0  0  0  0  0
    2.1917    1.7762   -1.7153 H   0  0  0  0  0  0  0  0  0  0  0  0
    4.7462    1.9433   -1.5454 H   0  0  0  0  0  0  0  0  0  0  0  0
    7.1645    1.7700   -1.1467 H   0  0  0  0  0  0  0  0  0  0  0  0
    6.5193   -1.6575    1.3858 H   0  0  0  0  0  0  0  0  0  0  0  0
    9.0613    0.3223   -0.4653 H   0  0  0  0  0  0  0  0  0  0  0  0
    8.7441    0.5470    1.2728 H   0  0  0  0  0  0  0  0  0  0  0  0
    8.7964   -1.0856    0.5622 H   0  0  0  0  0  0  0  0  0  0  0  0
  1  2  1  0
  2  3  2  0
  3  4  1  0
  4  5  2  0
  5  6  1  0
  6  7  2  0
  7  8  1  0
  8  9  2  0
  9 10  1  0
 10 11  2  0
 11 12  1  0
 12 13  1  0
 10 14  1  0
 14 15  2  0
 15 16  1  0
 16 17  1  0
 17 18  1  0
 18 19  2  0
 17 20  2  0
 20 21  1  0
 21 22  2  0
 22 23  1  0
  9 24  1  0
  5 25  1  0
 25  2  1  0
 24  6  1  0
 16 12  2  0
 20 13  1  0
 22 19  1  0
  1 26  1  0
  1 27  1  0
  1 28  1  0
  3 29  1  0
  4 30  1  0
  7 31  1  0
  8 32  1  0
 11 33  1  0
 14 34  1  0
 15 35  1  0
 18 36  1  0
 19 37  1  0
 21 38  1  0
 23 39  1  0
 23 40  1  0
 23 41  1  0
M  END
