
     RDKit          3D

 42 44  0  0  0  0  0  0  0  0999 V2000
   -5.9151    1.1592   -0.0133 C   0  0  0  0  0  0  0  0  0  0  0  0
   -4.5334    0.5752   -0.0193 C   0  0  0  0  0  0  0  0  0  0  0  0
   -3.7976    0.5080   -1.2082 C   0  0  0  0  0  0  0  0  0  0  0  0
   -2.5244   -0.0672   -1.2206 C   0  0  0  0  0  0  0  0  0  0  0  0
   -1.9703   -0.5836   -0.0454 C   0  0  0  0  0  0  0  0  0  0  0  0
   -0.6399   -1.1847   -0.0683 C   0  0  0  0  0  0  0  0  0  0  0  0
   -0.2729   -2.4056   -0.6017 C   0  0  0  0  0  0  0  0  0  0  0  0
    1.1123   -2.5729   -0.4026 C   0  0  0  0  0  0  0  0  0  0  0  0
    1.5931   -1.4453    0.2376 C   0  0  0  0  0  0  0  0  0  0  0  0
    2.9886   -1.1063    0.6886 C   0  0  0  0  0  0  0  0  0  0  0  0
    4.0577   -2.0479    0.1417 C   0  0  0  0  0  0  0  0  0  0  0  0
    5.4235   -1.6370    0.6126 C   0  0  0  0  0  0  0  0  0  0  0  0
    5.7013   -0.7805    1.4342 O   0  0  0  0  0  0  0  0  0  0  0  0
    6.3978   -2.3599    0.0243 O   0  0  0  0  0  0  0  0  0  0  0  0
    0.5124   -0.5918    0.4282 N   0  0  0  0  0  0  0  0  0  0  0  0
    0.5701    0.7126    1.0928 C   0  0  0  0  0  0  0  0  0  0  0  0
    0.7067    1.8214    0.1156 C   0  0  0  0  0  0  0  0  0  0  0  0
   -0.2007    2.6508   -0.5128 C   0  0  0  0  0  0  0  0  0  0  0  0
    0.5541    3.5307   -1.3246 C   0  0  0  0  0  0  0  0  0  0  0  0
    1.8724    3.1935   -1.1314 C   0  0  0  0  0  0  0  0  0  0  0  0
    1.9761    2.1646   -0.2527 O   0  0  0  0  0  0  0  0  0  0  0  0
   -2.7156   -0.5451    1.1367 C   0  0  0  0  0  0  0  0  0  0  0  0
   -3.9889    0.0302    1.1497 C   0  0  0  0  0  0  0  0  0  0  0  0
   -6.0065    1.9530   -0.7621 H   0  0  0  0  0  0  0  0  0  0  0  0
   -6.6517    0.3799   -0.2315 H   0  0  0  0  0  0  0  0  0  0  0  0
   -6.1469    1.6034    0.9604 H   0  0  0  0  0  0  0  0  0  0  0  0
   -4.2110    0.9001   -2.1347 H   0  0  0  0  0  0  0  0  0  0  0  0
   -1.9628   -0.1076   -2.1514 H   0  0  0  0  0  0  0  0  0  0  0  0
   -0.9461   -3.1072   -1.0778 H   0  0  0  0  0  0  0  0  0  0  0  0
    1.6959   -3.4339   -0.7021 H   0  0  0  0  0  0  0  0  0  0  0  0
    3.2336   -0.0836    0.3794 H   0  0  0  0  0  0  0  0  0  0  0  0
    3.0134   -1.1234    1.7858 H   0  0  0  0  0  0  0  0  0  0  0  0
    4.0500   -2.0281   -0.9542 H   0  0  0  0  0  0  0  0  0  0  0  0
    3.8787   -3.0743    0.4812 H   0  0  0  0  0  0  0  0  0  0  0  0
    7.2248   -2.0058    0.4132 H   0  0  0  0  0  0  0  0  0  0  0  0
   -0.3342    0.8299    1.6969 H   0  0  0  0  0  0  0  0  0  0  0  0
    1.4084    0.7040    1.7965 H   0  0  0  0  0  0  0  0  0  0  0  0
   -1.2759    2.6194   -0.3995 H   0  0  0  0  0  0  0  0  0  0  0  0
    0.1842    4.3155   -1.9689 H   0  0  0  0  0  0  0  0  0  0  0  0
    2.8076    3.5700   -1.5217 H   0  0  0  0  0  0  0  0  0  0  0  0
   -2.3128   -0.9733    2.0514 H   0  0  0  0  0  0  0  0  0  0  0  0
   -4.5557    0.0435    2.0779 H   0  0  0  0  0  0  0  0  0  0  0  0
  1  2  1  0
  2  3  2  0
  3  4  1  0
  4  5  2  0
  5  6  1  0
  6  7  2  0
  7  8  1  0
  8  9  2  0
  9 10  1  0
 10 11  1  0
 11 12  1  0
 12 13  2  0
 12 14  1  0
  9 15  1  0
 15 16  1  0
 16 17  1  0
 17 18  2  0
 18 19  1  0
 19 20  2  0
 20 21  1  0
  5 22  1  0
 22 23  2  0
 23  2  1  0
 15  6  1  0
 21 17  1  0
  1 24  1  0
  1 25  1  0
  1 26  1  0
  3 27  1  0
  4 28  1  0
  7 29  1  0
  8 30  1  0
 10 31  1  0
 10 32  1  0
 11 33  1  0
 11 34  1  0
 14 35  1  0
 16 36  1  0
 16 37  1  0
 18 38  1  0
 19 39  1  0
 20 40  1  0
 22 41  1  0
 23 42  1  0
M  END
