
     RDKit          3D

 43 45  0  0  0  0  0  0  0  0999 V2000
    7.8713    1.6473    1.4912 C   0  0  0  0  0  0  0  0  0  0  0  0
    6.6228    1.0137    0.9801 C   0  0  0  0  0  0  0  0  0  0  0  0
    6.4682    0.1914   -0.1162 C   0  0  0  0  0  0  0  0  0  0  0  0
    5.1194   -0.2331   -0.2845 C   0  0  0  0  0  0  0  0  0  0  0  0
    4.2809    0.2813    0.6855 C   0  0  0  0  0  0  0  0  0  0  0  0
    2.8008    0.0597    0.8477 C   0  0  0  0  0  0  0  0  0  0  0  0
    2.0604    0.2222   -0.4038 N   0  0  0  0  0  0  0  0  0  0  0  0
    0.6645    0.1679   -0.3993 C   0  0  0  0  0  0  0  0  0  0  0  0
   -0.0265    0.6818   -1.4995 C   0  0  0  0  0  0  0  0  0  0  0  0
   -1.4207    0.5985   -1.5872 C   0  0  0  0  0  0  0  0  0  0  0  0
   -2.1895   -0.0230   -0.5917 C   0  0  0  0  0  0  0  0  0  0  0  0
   -3.5694   -0.0018   -0.7802 N   0  0  0  0  0  0  0  0  0  0  0  0
   -4.1597   -1.2148   -1.3832 C   0  0  0  0  0  0  0  0  0  0  0  0
   -5.4969   -1.5878   -0.7171 C   0  0  0  0  0  0  0  0  0  0  0  0
   -6.4359   -0.5036   -0.6647 O   0  0  0  0  0  0  0  0  0  0  0  0
   -5.8394    0.7537   -0.3047 C   0  0  0  0  0  0  0  0  0  0  0  0
   -4.4018    0.6546    0.2356 C   0  0  0  0  0  0  0  0  0  0  0  0
   -1.4930   -0.5922    0.4881 C   0  0  0  0  0  0  0  0  0  0  0  0
   -2.1734   -1.3766    1.5412 C   0  0  0  0  0  0  0  0  0  0  0  0
   -3.0591   -2.1975    1.4019 O   0  0  0  0  0  0  0  0  0  0  0  0
   -1.6908   -1.0751    2.7636 O   0  0  0  0  0  0  0  0  0  0  0  0
   -0.0852   -0.5017    0.5696 C   0  0  0  0  0  0  0  0  0  0  0  0
    5.1398    1.2615    1.7955 S   0  0  0  0  0  0  0  0  0  0  0  0
    8.6331    1.6921    0.7058 H   0  0  0  0  0  0  0  0  0  0  0  0
    8.2780    1.0663    2.3249 H   0  0  0  0  0  0  0  0  0  0  0  0
    7.6905    2.6710    1.8342 H   0  0  0  0  0  0  0  0  0  0  0  0
    7.2844   -0.0970   -0.7681 H   0  0  0  0  0  0  0  0  0  0  0  0
    4.7739   -0.8842   -1.0796 H   0  0  0  0  0  0  0  0  0  0  0  0
    2.3980    0.7512    1.5986 H   0  0  0  0  0  0  0  0  0  0  0  0
    2.6665   -0.9614    1.2269 H   0  0  0  0  0  0  0  0  0  0  0  0
    2.4058    1.0180   -0.9360 H   0  0  0  0  0  0  0  0  0  0  0  0
    0.5156    1.1620   -2.3107 H   0  0  0  0  0  0  0  0  0  0  0  0
   -1.9206    1.0365   -2.4496 H   0  0  0  0  0  0  0  0  0  0  0  0
   -3.4795   -2.0737   -1.3379 H   0  0  0  0  0  0  0  0  0  0  0  0
   -4.3417   -0.9930   -2.4414 H   0  0  0  0  0  0  0  0  0  0  0  0
   -5.9702   -2.4046   -1.2721 H   0  0  0  0  0  0  0  0  0  0  0  0
   -5.3442   -1.9459    0.3061 H   0  0  0  0  0  0  0  0  0  0  0  0
   -6.4895    1.2264    0.4385 H   0  0  0  0  0  0  0  0  0  0  0  0
   -5.8584    1.3833   -1.2019 H   0  0  0  0  0  0  0  0  0  0  0  0
   -4.0242    1.6631    0.4419 H   0  0  0  0  0  0  0  0  0  0  0  0
   -4.4028    0.0926    1.1750 H   0  0  0  0  0  0  0  0  0  0  0  0
   -2.2128   -1.6436    3.3675 H   0  0  0  0  0  0  0  0  0  0  0  0
    0.4114   -0.9854    1.4055 H   0  0  0  0  0  0  0  0  0  0  0  0
  1  2  1  0
  2  3  2  0
  3  4  1  0
  4  5  2  0
  5  6  1  0
  6  7  1  0
  7  8  1  0
  8  9  2  0
  9 10  1  0
 10 11  2  0
 11 12  1  0
 12 13  1  0
 13 14  1  0
 14 15  1  0
 15 16  1  0
 16 17  1  0
 11 18  1  0
 18 19  1  0
 19 20  2  0
 19 21  1  0
 18 22  2  0
  5 23  1  0
 23  2  1  0
 22  8  1  0
 17 12  1  0
  1 24  1  0
  1 25  1  0
  1 26  1  0
  3 27  1  0
  4 28  1  0
  6 29  1  0
  6 30  1  0
  7 31  1  0
  9 32  1  0
 10 33  1  0
 13 34  1  0
 13 35  1  0
 14 36  1  0
 14 37  1  0
 16 38  1  0
 16 39  1  0
 17 40  1  0
 17 41  1  0
 21 42  1  0
 22 43  1  0
M  END
