
     RDKit          3D

 31 31  0  0  0  0  0  0  0  0999 V2000
    4.9453    1.1458   -1.5153 C   0  0  0  0  0  0  0  0  0  0  0  0
    3.6734    0.6919   -0.8624 C   0  0  0  0  0  0  0  0  0  0  0  0
    3.3028    1.1923    0.3904 C   0  0  0  0  0  0  0  0  0  0  0  0
    2.1041    0.7933    0.9854 C   0  0  0  0  0  0  0  0  0  0  0  0
    1.2505   -0.1081    0.3349 C   0  0  0  0  0  0  0  0  0  0  0  0
   -0.0517   -0.5202    0.9799 C   0  0  0  0  0  0  0  0  0  0  0  0
   -0.9919    0.5989    1.0047 N   0  0  0  0  0  0  0  0  0  0  0  0
   -2.4856    0.3192    1.6735 S   0  0  0  0  0  6  0  0  0  0  0  0
   -2.2943   -0.3467    2.9386 O   0  0  0  0  0  0  0  0  0  0  0  0
   -3.2528    1.5346    1.5512 O   0  0  0  0  0  0  0  0  0  0  0  0
   -3.1066   -0.7997    0.5617 N   0  0  0  0  0  0  0  0  0  0  0  0
   -4.2253   -1.6013    1.1113 C   0  0  0  0  0  0  0  0  0  0  0  0
   -3.4483   -0.2479   -0.7678 C   0  0  0  0  0  0  0  0  0  0  0  0
    1.6129   -0.5916   -0.9288 C   0  0  0  0  0  0  0  0  0  0  0  0
    2.8129   -0.1923   -1.5229 C   0  0  0  0  0  0  0  0  0  0  0  0
    5.3518    0.3633   -2.1647 H   0  0  0  0  0  0  0  0  0  0  0  0
    4.7589    2.0420   -2.1149 H   0  0  0  0  0  0  0  0  0  0  0  0
    5.7097    1.3740   -0.7651 H   0  0  0  0  0  0  0  0  0  0  0  0
    3.9451    1.8979    0.9129 H   0  0  0  0  0  0  0  0  0  0  0  0
    1.8311    1.1948    1.9599 H   0  0  0  0  0  0  0  0  0  0  0  0
   -0.4790   -1.3594    0.4201 H   0  0  0  0  0  0  0  0  0  0  0  0
    0.1566   -0.8713    1.9968 H   0  0  0  0  0  0  0  0  0  0  0  0
   -1.0239    1.1699    0.1661 H   0  0  0  0  0  0  0  0  0  0  0  0
   -3.8943   -2.1763    1.9809 H   0  0  0  0  0  0  0  0  0  0  0  0
   -4.5709   -2.3239    0.3646 H   0  0  0  0  0  0  0  0  0  0  0  0
   -5.0676   -0.9606    1.3898 H   0  0  0  0  0  0  0  0  0  0  0  0
   -4.3251    0.4042   -0.7128 H   0  0  0  0  0  0  0  0  0  0  0  0
   -2.6073    0.3060   -1.1929 H   0  0  0  0  0  0  0  0  0  0  0  0
   -3.6686   -1.0683   -1.4590 H   0  0  0  0  0  0  0  0  0  0  0  0
    0.9646   -1.2831   -1.4623 H   0  0  0  0  0  0  0  0  0  0  0  0
    3.0735   -0.5775   -2.5063 H   0  0  0  0  0  0  0  0  0  0  0  0
  1  2  1  0
  2  3  2  0
  3  4  1  0
  4  5  2  0
  5  6  1  0
  6  7  1  0
  7  8  1  0
  8  9  2  0
  8 10  2  0
  8 11  1  0
 11 12  1  0
 11 13  1  0
  5 14  1  0
 14 15  2  0
 15  2  1  0
  1 16  1  0
  1 17  1  0
  1 18  1  0
  3 19  1  0
  4 20  1  0
  6 21  1  0
  6 22  1  0
  7 23  1  0
 12 24  1  0
 12 25  1  0
 12 26  1  0
 13 27  1  0
 13 28  1  0
 13 29  1  0
 14 30  1  0
 15 31  1  0
M  END
