
     RDKit          3D

 43 45  0  0  0  0  0  0  0  0999 V2000
    7.7210    1.2867    0.8014 C   0  0  0  0  0  0  0  0  0  0  0  0
    6.3276    0.8031    0.5335 C   0  0  0  0  0  0  0  0  0  0  0  0
    5.2363    1.6619    0.6672 C   0  0  0  0  0  0  0  0  0  0  0  0
    3.9386    1.2139    0.3867 C   0  0  0  0  0  0  0  0  0  0  0  0
    3.6951   -0.0997   -0.0443 C   0  0  0  0  0  0  0  0  0  0  0  0
    2.3712   -0.5379   -0.3286 N   0  0  0  0  0  0  0  0  0  0  0  0
    1.2278    0.3430   -0.2494 C   0  0  0  0  0  0  0  0  0  0  0  0
    0.1184   -0.4043   -0.9700 C   0  0  0  0  0  0  0  0  0  0  0  0
   -1.2525   -0.0195   -0.4535 C   0  0  0  0  0  0  0  0  0  0  0  0
   -1.4165    0.8921    0.3513 O   0  0  0  0  0  0  0  0  0  0  0  0
   -2.2691   -0.7793   -1.0294 N   0  0  0  0  0  0  0  0  0  0  0  0
   -3.6100   -0.5329   -0.8643 N   0  0  0  0  0  0  0  0  0  0  0  0
   -4.0304   -0.1569    0.3056 C   0  0  0  0  0  0  0  0  0  0  0  0
   -5.4263    0.1559    0.5366 C   0  0  0  0  0  0  0  0  0  0  0  0
   -5.8872    0.5833    2.1325 S   0  0  0  0  0  0  0  0  0  0  0  0
   -7.5169    0.7928    1.6811 C   0  0  0  0  0  0  0  0  0  0  0  0
   -7.7133    0.5451    0.3427 C   0  0  0  0  0  0  0  0  0  0  0  0
   -6.5051    0.1734   -0.3387 C   0  0  0  0  0  0  0  0  0  0  0  0
   -6.4509   -0.1437   -1.7983 C   0  0  0  0  0  0  0  0  0  0  0  0
    0.4635   -1.8624   -0.7189 C   0  0  0  0  0  0  0  0  0  0  0  0
    1.9652   -1.8549   -0.5744 C   0  0  0  0  0  0  0  0  0  0  0  0
    2.6300   -2.8771   -0.6425 O   0  0  0  0  0  0  0  0  0  0  0  0
    4.8011   -0.9452   -0.1888 C   0  0  0  0  0  0  0  0  0  0  0  0
    6.1005   -0.5006    0.0906 C   0  0  0  0  0  0  0  0  0  0  0  0
    8.3540    0.4709    1.1661 H   0  0  0  0  0  0  0  0  0  0  0  0
    7.7231    2.0671    1.5697 H   0  0  0  0  0  0  0  0  0  0  0  0
    8.1593    1.6923   -0.1156 H   0  0  0  0  0  0  0  0  0  0  0  0
    5.3831    2.6884    0.9961 H   0  0  0  0  0  0  0  0  0  0  0  0
    3.1305    1.9248    0.5294 H   0  0  0  0  0  0  0  0  0  0  0  0
    1.0083    0.5243    0.8093 H   0  0  0  0  0  0  0  0  0  0  0  0
    1.4249    1.2949   -0.7539 H   0  0  0  0  0  0  0  0  0  0  0  0
    0.1655   -0.1855   -2.0449 H   0  0  0  0  0  0  0  0  0  0  0  0
   -2.0653   -1.2537   -1.9056 H   0  0  0  0  0  0  0  0  0  0  0  0
   -3.3550   -0.0969    1.1770 H   0  0  0  0  0  0  0  0  0  0  0  0
   -8.2543    1.0881    2.4150 H   0  0  0  0  0  0  0  0  0  0  0  0
   -8.6834    0.6273   -0.1335 H   0  0  0  0  0  0  0  0  0  0  0  0
   -5.7674    0.5368   -2.3160 H   0  0  0  0  0  0  0  0  0  0  0  0
   -7.4375   -0.0389   -2.2619 H   0  0  0  0  0  0  0  0  0  0  0  0
   -6.1176   -1.1742   -1.9566 H   0  0  0  0  0  0  0  0  0  0  0  0
    0.1697   -2.4921   -1.5639 H   0  0  0  0  0  0  0  0  0  0  0  0
    0.0180   -2.2521    0.2025 H   0  0  0  0  0  0  0  0  0  0  0  0
    4.6945   -1.9688   -0.5343 H   0  0  0  0  0  0  0  0  0  0  0  0
    6.9318   -1.1896   -0.0434 H   0  0  0  0  0  0  0  0  0  0  0  0
  1  2  1  0
  2  3  2  0
  3  4  1  0
  4  5  2  0
  5  6  1  0
  6  7  1  0
  7  8  1  0
  8  9  1  0
  9 10  2  0
  9 11  1  0
 11 12  1  0
 12 13  2  3
 13 14  1  0
 14 15  1  0
 15 16  1  0
 16 17  2  0
 17 18  1  0
 18 19  1  0
  8 20  1  0
 20 21  1  0
 21 22  2  0
  5 23  1  0
 23 24  2  0
 24  2  1  0
 21  6  1  0
 18 14  2  0
  1 25  1  0
  1 26  1  0
  1 27  1  0
  3 28  1  0
  4 29  1  0
  7 30  1  0
  7 31  1  0
  8 32  1  0
 11 33  1  0
 13 34  1  0
 16 35  1  0
 17 36  1  0
 19 37  1  0
 19 38  1  0
 19 39  1  0
 20 40  1  0
 20 41  1  0
 23 42  1  0
 24 43  1  0
M  END
