
     RDKit          3D

 42 44  0  0  0  0  0  0  0  0999 V2000
    7.3406   -0.1707   -0.6894 C   0  0  0  0  0  0  0  0  0  0  0  0
    5.8527   -0.3133   -0.5964 C   0  0  0  0  0  0  0  0  0  0  0  0
    5.1936   -1.4125   -1.1510 C   0  0  0  0  0  0  0  0  0  0  0  0
    3.7996   -1.5102   -1.0729 C   0  0  0  0  0  0  0  0  0  0  0  0
    3.0399   -0.5097   -0.4496 C   0  0  0  0  0  0  0  0  0  0  0  0
    1.6417   -0.6942   -0.4164 N   0  0  0  0  0  0  0  0  0  0  0  0
    0.6878    0.1561    0.1258 C   0  0  0  0  0  0  0  0  0  0  0  0
    0.9101    1.2324    0.6680 O   0  0  0  0  0  0  0  0  0  0  0  0
   -0.7262   -0.4050   -0.0124 C   0  0  0  0  0  0  0  0  0  0  0  0
   -0.9173   -1.6620    0.8605 C   0  0  0  0  0  0  0  0  0  0  0  0
   -1.9601   -1.4584    1.9555 C   0  0  0  0  0  0  0  0  0  0  0  0
   -3.2916   -0.9557    1.3915 C   0  0  0  0  0  0  0  0  0  0  0  0
   -3.0848    0.0638    0.3660 N   0  0  0  0  0  0  0  0  0  0  0  0
   -4.1911    0.8566    0.0890 C   0  0  0  0  0  0  0  0  0  0  0  0
   -5.4146    0.3845    0.3931 N   0  0  0  0  0  0  0  0  0  0  0  0
   -6.4789    1.1545    0.0974 C   0  0  0  0  0  0  0  0  0  0  0  0
   -6.3821    2.3848   -0.4964 C   0  0  0  0  0  0  0  0  0  0  0  0
   -5.1042    2.7882   -0.7785 C   0  0  0  0  0  0  0  0  0  0  0  0
   -4.0128    2.0502   -0.5019 N   0  0  0  0  0  0  0  0  0  0  0  0
   -1.7668    0.6871    0.2808 C   0  0  0  0  0  0  0  0  0  0  0  0
    3.6977    0.5924    0.0931 C   0  0  0  0  0  0  0  0  0  0  0  0
    5.0869    0.6827    0.0123 C   0  0  0  0  0  0  0  0  0  0  0  0
    5.6955    1.7574    0.5355 F   0  0  0  0  0  0  0  0  0  0  0  0
    7.8174   -1.1297   -0.9178 H   0  0  0  0  0  0  0  0  0  0  0  0
    7.6007    0.5418   -1.4783 H   0  0  0  0  0  0  0  0  0  0  0  0
    7.7548    0.1801    0.2616 H   0  0  0  0  0  0  0  0  0  0  0  0
    5.7567   -2.2003   -1.6465 H   0  0  0  0  0  0  0  0  0  0  0  0
    3.3190   -2.3816   -1.5114 H   0  0  0  0  0  0  0  0  0  0  0  0
    1.2972   -1.5413   -0.8516 H   0  0  0  0  0  0  0  0  0  0  0  0
   -0.8454   -0.7043   -1.0640 H   0  0  0  0  0  0  0  0  0  0  0  0
    0.0226   -1.9873    1.3212 H   0  0  0  0  0  0  0  0  0  0  0  0
   -1.2455   -2.4883    0.2165 H   0  0  0  0  0  0  0  0  0  0  0  0
   -2.1215   -2.3941    2.5028 H   0  0  0  0  0  0  0  0  0  0  0  0
   -1.5749   -0.7343    2.6850 H   0  0  0  0  0  0  0  0  0  0  0  0
   -3.8865   -0.5746    2.2319 H   0  0  0  0  0  0  0  0  0  0  0  0
   -3.8347   -1.8008    0.9505 H   0  0  0  0  0  0  0  0  0  0  0  0
   -7.4426    0.7315    0.3634 H   0  0  0  0  0  0  0  0  0  0  0  0
   -7.2466    2.9895   -0.7265 H   0  0  0  0  0  0  0  0  0  0  0  0
   -4.9059    3.7452   -1.2513 H   0  0  0  0  0  0  0  0  0  0  0  0
   -1.7018    1.4235   -0.5305 H   0  0  0  0  0  0  0  0  0  0  0  0
   -1.5508    1.2236    1.2139 H   0  0  0  0  0  0  0  0  0  0  0  0
    3.1722    1.4026    0.5849 H   0  0  0  0  0  0  0  0  0  0  0  0
  1  2  1  0
  2  3  2  0
  3  4  1  0
  4  5  2  0
  5  6  1  0
  6  7  1  0
  7  8  2  0
  7  9  1  0
  9 10  1  0
 10 11  1  0
 11 12  1  0
 12 13  1  0
 13 14  1  0
 14 15  2  0
 15 16  1  0
 16 17  2  0
 17 18  1  0
 18 19  2  0
 13 20  1  0
  5 21  1  0
 21 22  2  0
 22 23  1  0
 22  2  1  0
 20  9  1  0
 19 14  1  0
  1 24  1  0
  1 25  1  0
  1 26  1  0
  3 27  1  0
  4 28  1  0
  6 29  1  0
  9 30  1  0
 10 31  1  0
 10 32  1  0
 11 33  1  0
 11 34  1  0
 12 35  1  0
 12 36  1  0
 16 37  1  0
 17 38  1  0
 18 39  1  0
 20 40  1  0
 20 41  1  0
 21 42  1  0
M  END
