
     RDKit          3D

 42 43  0  0  0  0  0  0  0  0999 V2000
    6.4028    1.1672   -0.0770 C   0  0  0  0  0  0  0  0  0  0  0  0
    5.0209    0.5950    0.0340 C   0  0  0  0  0  0  0  0  0  0  0  0
    3.9469    1.4009    0.4194 C   0  0  0  0  0  0  0  0  0  0  0  0
    2.6528    0.8757    0.4928 C   0  0  0  0  0  0  0  0  0  0  0  0
    2.4121   -0.4627    0.1710 C   0  0  0  0  0  0  0  0  0  0  0  0
    1.1863   -1.0726    0.2097 O   0  0  0  0  0  0  0  0  0  0  0  0
    0.0682   -0.2870    0.6007 C   0  0  0  0  0  0  0  0  0  0  0  0
   -1.2263   -1.1165    0.5956 C   0  0  0  0  0  0  0  0  0  0  0  0
   -1.2241   -2.3135    0.3001 O   0  0  0  0  0  0  0  0  0  0  0  0
   -2.4062   -0.4513    0.9615 N   0  0  0  0  0  0  0  0  0  0  0  0
   -3.6554   -1.2043    0.9258 C   0  0  0  0  0  0  0  0  0  0  0  0
   -4.4851   -0.9176   -0.3264 C   0  0  0  0  0  0  0  0  0  0  0  0
   -5.1528    0.4557   -0.2801 C   0  0  0  0  0  0  0  0  0  0  0  0
   -4.2802    1.6365   -0.7061 C   0  0  0  0  0  0  0  0  0  0  0  0
   -2.8110    1.6409   -0.2809 C   0  0  0  0  0  0  0  0  0  0  0  0
   -2.5215    1.0029    1.0746 C   0  0  0  0  0  0  0  0  0  0  0  0
    3.4829   -1.2797   -0.2316 C   0  0  0  0  0  0  0  0  0  0  0  0
    3.2531   -2.7226   -0.5913 C   0  0  0  0  0  0  0  0  0  0  0  0
    4.7779   -0.7413   -0.3021 C   0  0  0  0  0  0  0  0  0  0  0  0
    6.5681    1.5525   -1.0878 H   0  0  0  0  0  0  0  0  0  0  0  0
    6.5475    1.9819    0.6403 H   0  0  0  0  0  0  0  0  0  0  0  0
    7.1592    0.4058    0.1405 H   0  0  0  0  0  0  0  0  0  0  0  0
    4.1099    2.4474    0.6676 H   0  0  0  0  0  0  0  0  0  0  0  0
    1.8572    1.5433    0.8038 H   0  0  0  0  0  0  0  0  0  0  0  0
   -0.0569    0.5392   -0.1070 H   0  0  0  0  0  0  0  0  0  0  0  0
    0.2187    0.0772    1.6235 H   0  0  0  0  0  0  0  0  0  0  0  0
   -3.4470   -2.2787    0.9712 H   0  0  0  0  0  0  0  0  0  0  0  0
   -4.2196   -0.9634    1.8347 H   0  0  0  0  0  0  0  0  0  0  0  0
   -3.8829   -1.0275   -1.2356 H   0  0  0  0  0  0  0  0  0  0  0  0
   -5.2794   -1.6728   -0.3751 H   0  0  0  0  0  0  0  0  0  0  0  0
   -5.5459    0.6407    0.7276 H   0  0  0  0  0  0  0  0  0  0  0  0
   -6.0302    0.4396   -0.9394 H   0  0  0  0  0  0  0  0  0  0  0  0
   -4.7560    2.5518   -0.3301 H   0  0  0  0  0  0  0  0  0  0  0  0
   -4.3119    1.7222   -1.8001 H   0  0  0  0  0  0  0  0  0  0  0  0
   -2.2169    1.1489   -1.0613 H   0  0  0  0  0  0  0  0  0  0  0  0
   -2.4753    2.6854   -0.2596 H   0  0  0  0  0  0  0  0  0  0  0  0
   -1.5821    1.4065    1.4627 H   0  0  0  0  0  0  0  0  0  0  0  0
   -3.2919    1.2481    1.8143 H   0  0  0  0  0  0  0  0  0  0  0  0
    4.1867   -3.2198   -0.8748 H   0  0  0  0  0  0  0  0  0  0  0  0
    2.8358   -3.2648    0.2634 H   0  0  0  0  0  0  0  0  0  0  0  0
    2.5664   -2.7966   -1.4408 H   0  0  0  0  0  0  0  0  0  0  0  0
    5.6053   -1.3724   -0.6215 H   0  0  0  0  0  0  0  0  0  0  0  0
  1  2  1  0
  2  3  2  0
  3  4  1  0
  4  5  2  0
  5  6  1  0
  6  7  1  0
  7  8  1  0
  8  9  2  0
  8 10  1  0
 10 11  1  0
 11 12  1  0
 12 13  1  0
 13 14  1  0
 14 15  1  0
 15 16  1  0
  5 17  1  0
 17 18  1  0
 17 19  2  0
 19  2  1  0
 16 10  1  0
  1 20  1  0
  1 21  1  0
  1 22  1  0
  3 23  1  0
  4 24  1  0
  7 25  1  0
  7 26  1  0
 11 27  1  0
 11 28  1  0
 12 29  1  0
 12 30  1  0
 13 31  1  0
 13 32  1  0
 14 33  1  0
 14 34  1  0
 15 35  1  0
 15 36  1  0
 16 37  1  0
 16 38  1  0
 18 39  1  0
 18 40  1  0
 18 41  1  0
 19 42  1  0
M  END
