
     RDKit          3D

 40 42  0  0  0  0  0  0  0  0999 V2000
    4.4974    1.6169   -2.5631 C   0  0  0  0  0  0  0  0  0  0  0  0
    3.6524    1.0443   -1.4631 C   0  0  0  0  0  0  0  0  0  0  0  0
    3.2652   -0.3023   -1.4989 C   0  0  0  0  0  0  0  0  0  0  0  0
    2.5072   -0.8495   -0.4626 C   0  0  0  0  0  0  0  0  0  0  0  0
    2.1388   -0.0447    0.6182 C   0  0  0  0  0  0  0  0  0  0  0  0
    1.1501   -0.7252    1.9221 S   0  0  0  0  0  6  0  0  0  0  0  0
    0.5612    0.3637    2.6781 O   0  0  0  0  0  0  0  0  0  0  0  0
    1.9395   -1.7547    2.5704 O   0  0  0  0  0  0  0  0  0  0  0  0
   -0.1652   -1.5389    1.1445 C   0  0  0  0  0  0  0  0  0  0  0  0
   -0.0823   -2.9007    0.8495 N   0  0  0  0  0  0  0  0  0  0  0  0
   -1.2485   -3.1761    0.3197 C   0  0  0  0  0  0  0  0  0  0  0  0
   -1.7692   -4.4681   -0.1648 C   0  0  0  0  0  0  0  0  0  0  0  0
   -2.0792   -2.1068    0.2023 O   0  0  0  0  0  0  0  0  0  0  0  0
   -1.3851   -1.0318    0.7129 C   0  0  0  0  0  0  0  0  0  0  0  0
   -2.0489    0.1526    0.6450 N   0  0  0  0  0  0  0  0  0  0  0  0
   -3.4819    0.1843    0.3070 C   0  0  0  0  0  0  0  0  0  0  0  0
   -4.1052    1.5125    0.7635 C   0  0  0  0  0  0  0  0  0  0  0  0
   -3.5043    2.6656    0.1571 O   0  0  0  0  0  0  0  0  0  0  0  0
   -2.1136    2.4879   -0.1441 C   0  0  0  0  0  0  0  0  0  0  0  0
   -1.3967    1.4598    0.7498 C   0  0  0  0  0  0  0  0  0  0  0  0
    2.5404    1.2922    0.6810 C   0  0  0  0  0  0  0  0  0  0  0  0
    3.2974    1.8325   -0.3595 C   0  0  0  0  0  0  0  0  0  0  0  0
    5.5573    1.4577   -2.3417 H   0  0  0  0  0  0  0  0  0  0  0  0
    4.3164    2.6909   -2.6776 H   0  0  0  0  0  0  0  0  0  0  0  0
    4.2599    1.1447   -3.5222 H   0  0  0  0  0  0  0  0  0  0  0  0
    3.5585   -0.9346   -2.3349 H   0  0  0  0  0  0  0  0  0  0  0  0
    2.2250   -1.8998   -0.5019 H   0  0  0  0  0  0  0  0  0  0  0  0
   -2.6938   -4.7274    0.3581 H   0  0  0  0  0  0  0  0  0  0  0  0
   -1.0420   -5.2669    0.0075 H   0  0  0  0  0  0  0  0  0  0  0  0
   -1.9784   -4.4184   -1.2376 H   0  0  0  0  0  0  0  0  0  0  0  0
   -4.0183   -0.6352    0.7989 H   0  0  0  0  0  0  0  0  0  0  0  0
   -3.5939    0.0746   -0.7783 H   0  0  0  0  0  0  0  0  0  0  0  0
   -5.1725    1.5317    0.5205 H   0  0  0  0  0  0  0  0  0  0  0  0
   -4.0147    1.6237    1.8509 H   0  0  0  0  0  0  0  0  0  0  0  0
   -1.6302    3.4660   -0.0537 H   0  0  0  0  0  0  0  0  0  0  0  0
   -2.0414    2.1858   -1.1954 H   0  0  0  0  0  0  0  0  0  0  0  0
   -0.3565    1.4108    0.4219 H   0  0  0  0  0  0  0  0  0  0  0  0
   -1.4340    1.7946    1.7919 H   0  0  0  0  0  0  0  0  0  0  0  0
    2.2748    1.9159    1.5321 H   0  0  0  0  0  0  0  0  0  0  0  0
    3.6144    2.8723   -0.3036 H   0  0  0  0  0  0  0  0  0  0  0  0
  1  2  1  0
  2  3  2  0
  3  4  1  0
  4  5  2  0
  5  6  1  0
  6  7  2  0
  6  8  2  0
  6  9  1  0
  9 10  1  0
 10 11  2  0
 11 12  1  0
 11 13  1  0
 13 14  1  0
 14 15  1  0
 15 16  1  0
 16 17  1  0
 17 18  1  0
 18 19  1  0
 19 20  1  0
  5 21  1  0
 21 22  2  0
 22  2  1  0
 14  9  2  0
 20 15  1  0
  1 23  1  0
  1 24  1  0
  1 25  1  0
  3 26  1  0
  4 27  1  0
 12 28  1  0
 12 29  1  0
 12 30  1  0
 16 31  1  0
 16 32  1  0
 17 33  1  0
 17 34  1  0
 19 35  1  0
 19 36  1  0
 20 37  1  0
 20 38  1  0
 21 39  1  0
 22 40  1  0
M  END
