
     RDKit          3D

 28 29  0  0  0  0  0  0  0  0999 V2000
   -3.7685   -0.0589   -2.1010 C   0  0  0  0  0  0  0  0  0  0  0  0
   -2.7376   -0.1155   -1.0114 C   0  0  0  0  0  0  0  0  0  0  0  0
   -2.3964    1.0430   -0.2999 C   0  0  0  0  0  0  0  0  0  0  0  0
   -1.4192    0.9998    0.6958 C   0  0  0  0  0  0  0  0  0  0  0  0
   -0.7616   -0.2035    0.9637 C   0  0  0  0  0  0  0  0  0  0  0  0
    0.4706   -0.2673    2.2440 S   0  0  0  0  0  6  0  0  0  0  0  0
    0.5484   -1.6345    2.7127 O   0  0  0  0  0  0  0  0  0  0  0  0
    0.2189    0.8314    3.1520 O   0  0  0  0  0  0  0  0  0  0  0  0
    1.8833    0.0708    1.4116 N   0  0  0  0  0  0  0  0  0  0  0  0
    2.2608    1.3609    0.7473 C   0  0  0  0  0  0  0  0  0  0  0  0
    3.0347    0.5222   -0.2352 C   0  0  0  0  0  0  0  0  0  0  0  0
    3.8128    0.8400   -1.2095 N   0  0  0  0  0  0  0  0  0  0  0  0
    4.2799   -0.3281   -1.8221 O   0  0  0  0  0  0  0  0  0  0  0  0
    2.5435   -0.7720    0.3598 C   0  0  0  0  0  0  0  0  0  0  0  0
   -1.0977   -1.3680    0.2686 C   0  0  0  0  0  0  0  0  0  0  0  0
   -2.0758   -1.3176   -0.7258 C   0  0  0  0  0  0  0  0  0  0  0  0
   -4.2910   -1.0167   -2.1945 H   0  0  0  0  0  0  0  0  0  0  0  0
   -3.2898    0.1783   -3.0560 H   0  0  0  0  0  0  0  0  0  0  0  0
   -4.5245    0.7032   -1.8844 H   0  0  0  0  0  0  0  0  0  0  0  0
   -2.8994    1.9846   -0.5118 H   0  0  0  0  0  0  0  0  0  0  0  0
   -1.1813    1.9019    1.2553 H   0  0  0  0  0  0  0  0  0  0  0  0
    1.4210    1.9000    0.3075 H   0  0  0  0  0  0  0  0  0  0  0  0
    2.8683    2.0039    1.3851 H   0  0  0  0  0  0  0  0  0  0  0  0
    4.8692    0.0195   -2.5195 H   0  0  0  0  0  0  0  0  0  0  0  0
    1.8468   -1.3191   -0.2762 H   0  0  0  0  0  0  0  0  0  0  0  0
    3.3206   -1.4205    0.7658 H   0  0  0  0  0  0  0  0  0  0  0  0
   -0.6087   -2.3131    0.4947 H   0  0  0  0  0  0  0  0  0  0  0  0
   -2.3275   -2.2251   -1.2714 H   0  0  0  0  0  0  0  0  0  0  0  0
  1  2  1  0
  2  3  2  0
  3  4  1  0
  4  5  2  0
  5  6  1  0
  6  7  2  0
  6  8  2  0
  6  9  1  0
  9 10  1  0
 10 11  1  0
 11 12  2  3
 12 13  1  0
 11 14  1  0
  5 15  1  0
 15 16  2  0
 16  2  1  0
 14  9  1  0
  1 17  1  0
  1 18  1  0
  1 19  1  0
  3 20  1  0
  4 21  1  0
 10 22  1  0
 10 23  1  0
 13 24  1  0
 14 25  1  0
 14 26  1  0
 15 27  1  0
 16 28  1  0
M  END
