
     RDKit          3D

 39 40  0  0  0  0  0  0  0  0999 V2000
    5.2537    1.0730    1.5544 C   0  0  0  0  0  0  0  0  0  0  0  0
    4.1945    0.3345    0.7891 C   0  0  0  0  0  0  0  0  0  0  0  0
    3.3730   -0.5974    1.4390 C   0  0  0  0  0  0  0  0  0  0  0  0
    2.4099   -1.3119    0.7245 C   0  0  0  0  0  0  0  0  0  0  0  0
    2.2708   -1.0940   -0.6478 C   0  0  0  0  0  0  0  0  0  0  0  0
    1.0587   -2.0009   -1.5715 S   0  0  0  0  0  6  0  0  0  0  0  0
    0.4908   -3.0259   -0.7245 O   0  0  0  0  0  0  0  0  0  0  0  0
    1.6285   -2.3091   -2.8645 O   0  0  0  0  0  0  0  0  0  0  0  0
   -0.1114   -0.8361   -1.8406 N   0  0  0  0  0  0  0  0  0  0  0  0
   -1.0449   -0.4557   -0.7804 C   0  0  0  0  0  0  0  0  0  0  0  0
   -1.2411    1.0631   -0.8307 C   0  0  0  0  0  0  0  0  0  0  0  0
   -2.2879    1.5266    0.1802 C   0  0  0  0  0  0  0  0  0  0  0  0
   -3.6154    0.7864   -0.0099 C   0  0  0  0  0  0  0  0  0  0  0  0
   -4.6319    1.2289    1.0161 C   0  0  0  0  0  0  0  0  0  0  0  0
   -5.6900    1.7865    0.7761 O   0  0  0  0  0  0  0  0  0  0  0  0
   -4.2752    0.9566    2.2845 O   0  0  0  0  0  0  0  0  0  0  0  0
   -3.4250   -0.7330    0.0257 C   0  0  0  0  0  0  0  0  0  0  0  0
   -2.3737   -1.1886   -0.9846 C   0  0  0  0  0  0  0  0  0  0  0  0
    3.0995   -0.1879   -1.3140 C   0  0  0  0  0  0  0  0  0  0  0  0
    4.0605    0.5228   -0.5935 C   0  0  0  0  0  0  0  0  0  0  0  0
    4.9415    1.2402    2.5907 H   0  0  0  0  0  0  0  0  0  0  0  0
    6.1851    0.4986    1.5532 H   0  0  0  0  0  0  0  0  0  0  0  0
    5.4426    2.0558    1.1100 H   0  0  0  0  0  0  0  0  0  0  0  0
    3.4830   -0.7748    2.5070 H   0  0  0  0  0  0  0  0  0  0  0  0
    1.7814   -2.0336    1.2413 H   0  0  0  0  0  0  0  0  0  0  0  0
   -0.3499   -0.6860   -2.8190 H   0  0  0  0  0  0  0  0  0  0  0  0
   -0.6336   -0.7151    0.2025 H   0  0  0  0  0  0  0  0  0  0  0  0
   -1.5494    1.3711   -1.8386 H   0  0  0  0  0  0  0  0  0  0  0  0
   -0.2890    1.5699   -0.6304 H   0  0  0  0  0  0  0  0  0  0  0  0
   -2.4442    2.6074    0.0786 H   0  0  0  0  0  0  0  0  0  0  0  0
   -1.9025    1.3649    1.1950 H   0  0  0  0  0  0  0  0  0  0  0  0
   -4.0238    1.0587   -0.9928 H   0  0  0  0  0  0  0  0  0  0  0  0
   -5.0240    1.2938    2.8204 H   0  0  0  0  0  0  0  0  0  0  0  0
   -4.3778   -1.2343   -0.1838 H   0  0  0  0  0  0  0  0  0  0  0  0
   -3.1207   -1.0564    1.0294 H   0  0  0  0  0  0  0  0  0  0  0  0
   -2.2275   -2.2714   -0.8938 H   0  0  0  0  0  0  0  0  0  0  0  0
   -2.7486   -1.0125   -2.0016 H   0  0  0  0  0  0  0  0  0  0  0  0
    3.0052   -0.0368   -2.3869 H   0  0  0  0  0  0  0  0  0  0  0  0
    4.7087    1.2225   -1.1175 H   0  0  0  0  0  0  0  0  0  0  0  0
  1  2  1  0
  2  3  2  0
  3  4  1  0
  4  5  2  0
  5  6  1  0
  6  7  2  0
  6  8  2  0
  6  9  1  0
  9 10  1  0
 10 11  1  0
 11 12  1  0
 12 13  1  0
 13 14  1  0
 14 15  2  0
 14 16  1  0
 13 17  1  0
 17 18  1  0
  5 19  1  0
 19 20  2  0
 20  2  1  0
 18 10  1  0
  1 21  1  0
  1 22  1  0
  1 23  1  0
  3 24  1  0
  4 25  1  0
  9 26  1  0
 10 27  1  0
 11 28  1  0
 11 29  1  0
 12 30  1  0
 12 31  1  0
 13 32  1  0
 16 33  1  0
 17 34  1  0
 17 35  1  0
 18 36  1  0
 18 37  1  0
 19 38  1  0
 20 39  1  0
M  END
