
     RDKit          3D

 43 44  0  0  0  0  0  0  0  0999 V2000
   -6.7522    1.1463    0.6375 C   0  0  0  0  0  0  0  0  0  0  0  0
   -5.4458    0.4073    0.6526 C   0  0  0  0  0  0  0  0  0  0  0  0
   -4.4614    0.7311    1.5968 C   0  0  0  0  0  0  0  0  0  0  0  0
   -3.2587    0.0239    1.6368 C   0  0  0  0  0  0  0  0  0  0  0  0
   -3.0420   -1.0139    0.7276 C   0  0  0  0  0  0  0  0  0  0  0  0
   -1.5205   -1.9258    0.7662 S   0  0  0  0  0  6  0  0  0  0  0  0
   -1.8215   -3.3077    0.4688 O   0  0  0  0  0  0  0  0  0  0  0  0
   -0.7877   -1.5409    1.9527 O   0  0  0  0  0  0  0  0  0  0  0  0
   -0.6967   -1.3181   -0.5505 N   0  0  0  0  0  0  0  0  0  0  0  0
   -0.3807    0.1111   -0.5982 C   0  0  0  0  0  0  0  0  0  0  0  0
    0.7708    0.3220   -1.5766 C   0  0  0  0  0  0  0  0  0  0  0  0
    0.5259    0.5279   -2.7690 O   0  0  0  0  0  0  0  0  0  0  0  0
    2.0698    0.2489   -1.0882 N   0  0  0  0  0  0  0  0  0  0  0  0
    2.4132   -0.1749    0.2726 C   0  0  0  0  0  0  0  0  0  0  0  0
    3.8073   -0.7915    0.3503 C   0  0  0  0  0  0  0  0  0  0  0  0
    4.9027    0.1480   -0.1814 C   0  0  0  0  0  0  0  0  0  0  0  0
    5.5694    0.9286    0.9520 C   0  0  0  0  0  0  0  0  0  0  0  0
    4.3709    1.1129   -1.2543 C   0  0  0  0  0  0  0  0  0  0  0  0
    3.1765    0.5302   -2.0003 C   0  0  0  0  0  0  0  0  0  0  0  0
   -4.0251   -1.3677   -0.1999 C   0  0  0  0  0  0  0  0  0  0  0  0
   -5.2250   -0.6560   -0.2338 C   0  0  0  0  0  0  0  0  0  0  0  0
   -7.4663    0.6573    1.3073 H   0  0  0  0  0  0  0  0  0  0  0  0
   -7.1742    1.1728   -0.3727 H   0  0  0  0  0  0  0  0  0  0  0  0
   -6.6172    2.1841    0.9598 H   0  0  0  0  0  0  0  0  0  0  0  0
   -4.6306    1.5349    2.3109 H   0  0  0  0  0  0  0  0  0  0  0  0
   -2.5071    0.2837    2.3789 H   0  0  0  0  0  0  0  0  0  0  0  0
   -0.8756   -1.7910   -1.4362 H   0  0  0  0  0  0  0  0  0  0  0  0
   -1.2435    0.6691   -0.9776 H   0  0  0  0  0  0  0  0  0  0  0  0
   -0.1261    0.5205    0.3825 H   0  0  0  0  0  0  0  0  0  0  0  0
    2.3486    0.7113    0.9142 H   0  0  0  0  0  0  0  0  0  0  0  0
    1.6828   -0.9026    0.6337 H   0  0  0  0  0  0  0  0  0  0  0  0
    3.8115   -1.7055   -0.2591 H   0  0  0  0  0  0  0  0  0  0  0  0
    4.0230   -1.1076    1.3774 H   0  0  0  0  0  0  0  0  0  0  0  0
    5.6782   -0.4814   -0.6383 H   0  0  0  0  0  0  0  0  0  0  0  0
    6.0260    0.2465    1.6770 H   0  0  0  0  0  0  0  0  0  0  0  0
    4.8453    1.5536    1.4857 H   0  0  0  0  0  0  0  0  0  0  0  0
    6.3595    1.5793    0.5625 H   0  0  0  0  0  0  0  0  0  0  0  0
    5.1738    1.3533   -1.9611 H   0  0  0  0  0  0  0  0  0  0  0  0
    4.0661    2.0613   -0.7924 H   0  0  0  0  0  0  0  0  0  0  0  0
    2.8508    1.2286   -2.7790 H   0  0  0  0  0  0  0  0  0  0  0  0
    3.4463   -0.4108   -2.4943 H   0  0  0  0  0  0  0  0  0  0  0  0
   -3.8690   -2.1953   -0.8882 H   0  0  0  0  0  0  0  0  0  0  0  0
   -5.9916   -0.9386   -0.9530 H   0  0  0  0  0  0  0  0  0  0  0  0
  1  2  1  0
  2  3  2  0
  3  4  1  0
  4  5  2  0
  5  6  1  0
  6  7  2  0
  6  8  2  0
  6  9  1  0
  9 10  1  0
 10 11  1  0
 11 12  2  0
 11 13  1  0
 13 14  1  0
 14 15  1  0
 15 16  1  0
 16 17  1  0
 16 18  1  0
 18 19  1  0
  5 20  1  0
 20 21  2  0
 21  2  1  0
 19 13  1  0
  1 22  1  0
  1 23  1  0
  1 24  1  0
  3 25  1  0
  4 26  1  0
  9 27  1  0
 10 28  1  0
 10 29  1  0
 14 30  1  0
 14 31  1  0
 15 32  1  0
 15 33  1  0
 16 34  1  0
 17 35  1  0
 17 36  1  0
 17 37  1  0
 18 38  1  0
 18 39  1  0
 19 40  1  0
 19 41  1  0
 20 42  1  0
 21 43  1  0
M  END
