
     RDKit          3D

 22 23  0  0  0  0  0  0  0  0999 V2000
    3.3333    0.1056    0.2092 C   0  0  0  0  0  0  0  0  0  0  0  0
    1.8955   -0.2619    0.0288 C   0  0  0  0  0  0  0  0  0  0  0  0
    1.4984   -1.5481   -0.3526 C   0  0  0  0  0  0  0  0  0  0  0  0
    0.1481   -1.8453   -0.5086 C   0  0  0  0  0  0  0  0  0  0  0  0
   -0.8292   -0.8691   -0.2880 C   0  0  0  0  0  0  0  0  0  0  0  0
   -2.1966   -1.1556   -0.4419 C   0  0  0  0  0  0  0  0  0  0  0  0
   -3.1642   -0.1720   -0.2187 C   0  0  0  0  0  0  0  0  0  0  0  0
   -2.7821    1.1115    0.1612 C   0  0  0  0  0  0  0  0  0  0  0  0
   -1.4322    1.4064    0.3165 C   0  0  0  0  0  0  0  0  0  0  0  0
   -1.1118    2.6860    0.6920 O   0  0  0  0  0  0  0  0  0  0  0  0
   -0.4344    0.4338    0.0980 C   0  0  0  0  0  0  0  0  0  0  0  0
    0.9407    0.7321    0.2556 N   0  0  0  0  0  4  0  0  0  0  0  0
    1.3066    1.9174    0.6072 O   0  0  0  0  0  1  0  0  0  0  0  0
    3.9905   -0.7463    0.0061 H   0  0  0  0  0  0  0  0  0  0  0  0
    3.5167    0.4303    1.2382 H   0  0  0  0  0  0  0  0  0  0  0  0
    3.6092    0.9109   -0.4788 H   0  0  0  0  0  0  0  0  0  0  0  0
    2.2419   -2.3225   -0.5293 H   0  0  0  0  0  0  0  0  0  0  0  0
   -0.1378   -2.8535   -0.8062 H   0  0  0  0  0  0  0  0  0  0  0  0
   -2.5233   -2.1510   -0.7381 H   0  0  0  0  0  0  0  0  0  0  0  0
   -4.2188   -0.4076   -0.3414 H   0  0  0  0  0  0  0  0  0  0  0  0
   -3.5289    1.8811    0.3364 H   0  0  0  0  0  0  0  0  0  0  0  0
   -0.1216    2.7177    0.7542 H   0  0  0  0  0  0  0  0  0  0  0  0
  1  2  1  0
  2  3  2  0
  3  4  1  0
  4  5  2  0
  5  6  1  0
  6  7  2  0
  7  8  1  0
  8  9  2  0
  9 10  1  0
  9 11  1  0
 11 12  2  0
 12 13  1  0
 12  2  1  0
 11  5  1  0
  1 14  1  0
  1 15  1  0
  1 16  1  0
  3 17  1  0
  4 18  1  0
  6 19  1  0
  7 20  1  0
  8 21  1  0
 10 22  1  0
M  CHG  2  12   1  13  -1
M  END
