
     RDKit          3D

 39 41  0  0  0  0  0  0  0  0999 V2000
   -5.6318   -1.4421    0.0960 C   0  0  0  0  0  0  0  0  0  0  0  0
   -4.6083   -0.3102    0.0381 C   0  0  0  0  0  0  0  0  0  0  0  0
   -4.5126    0.4134    1.3994 C   0  0  0  0  0  0  0  0  0  0  0  0
   -3.5652    1.6229    1.3394 C   0  0  0  0  0  0  0  0  0  0  0  0
   -2.3091    1.2703    0.6061 C   0  0  0  0  0  0  0  0  0  0  0  0
   -0.9289    2.2579    0.6584 S   0  0  0  0  0  0  0  0  0  0  0  0
   -0.0527    1.2138   -0.3891 C   0  0  0  0  0  0  0  0  0  0  0  0
    1.3219    1.5585   -0.7371 C   0  0  0  0  0  0  0  0  0  0  0  0
    1.8364    2.6536   -0.5174 O   0  0  0  0  0  0  0  0  0  0  0  0
    2.0421    0.5405   -1.3359 N   0  0  0  0  0  0  0  0  0  0  0  0
    3.4538    0.6721   -1.6111 C   0  0  0  0  0  0  0  0  0  0  0  0
    4.2723    0.0089   -0.5318 C   0  0  0  0  0  0  0  0  0  0  0  0
    4.7650   -1.2945   -0.7039 C   0  0  0  0  0  0  0  0  0  0  0  0
    5.5023   -1.9081    0.3103 C   0  0  0  0  0  0  0  0  0  0  0  0
    5.7412   -1.2239    1.4965 C   0  0  0  0  0  0  0  0  0  0  0  0
    6.4473   -1.8169    2.4681 F   0  0  0  0  0  0  0  0  0  0  0  0
    5.2559    0.0632    1.6900 C   0  0  0  0  0  0  0  0  0  0  0  0
    4.5196    0.6794    0.6776 C   0  0  0  0  0  0  0  0  0  0  0  0
   -0.8347    0.1369   -0.7772 C   0  0  0  0  0  0  0  0  0  0  0  0
   -2.1430    0.1655   -0.2024 C   0  0  0  0  0  0  0  0  0  0  0  0
   -3.2277   -0.8519   -0.3972 C   0  0  0  0  0  0  0  0  0  0  0  0
   -6.6225   -1.0560    0.3583 H   0  0  0  0  0  0  0  0  0  0  0  0
   -5.7128   -1.9417   -0.8750 H   0  0  0  0  0  0  0  0  0  0  0  0
   -5.3533   -2.1935    0.8426 H   0  0  0  0  0  0  0  0  0  0  0  0
   -4.9493    0.4179   -0.7109 H   0  0  0  0  0  0  0  0  0  0  0  0
   -4.1528   -0.2921    2.1604 H   0  0  0  0  0  0  0  0  0  0  0  0
   -5.5039    0.7513    1.7239 H   0  0  0  0  0  0  0  0  0  0  0  0
   -3.3456    1.9634    2.3577 H   0  0  0  0  0  0  0  0  0  0  0  0
   -4.0638    2.4469    0.8140 H   0  0  0  0  0  0  0  0  0  0  0  0
    1.6645   -0.3937   -1.3137 H   0  0  0  0  0  0  0  0  0  0  0  0
    3.6399    0.1916   -2.5781 H   0  0  0  0  0  0  0  0  0  0  0  0
    3.7415    1.7244   -1.7140 H   0  0  0  0  0  0  0  0  0  0  0  0
    4.5807   -1.8378   -1.6279 H   0  0  0  0  0  0  0  0  0  0  0  0
    5.8910   -2.9136    0.1848 H   0  0  0  0  0  0  0  0  0  0  0  0
    5.4498    0.5781    2.6254 H   0  0  0  0  0  0  0  0  0  0  0  0
    4.1331    1.6862    0.8338 H   0  0  0  0  0  0  0  0  0  0  0  0
   -0.5010   -0.6405   -1.4525 H   0  0  0  0  0  0  0  0  0  0  0  0
   -3.2682   -1.1578   -1.4496 H   0  0  0  0  0  0  0  0  0  0  0  0
   -2.9708   -1.7424    0.1909 H   0  0  0  0  0  0  0  0  0  0  0  0
  1  2  1  0
  2  3  1  0
  3  4  1  0
  4  5  1  0
  5  6  1  0
  6  7  1  0
  7  8  1  0
  8  9  2  0
  8 10  1  0
 10 11  1  0
 11 12  1  0
 12 13  2  0
 13 14  1  0
 14 15  2  0
 15 16  1  0
 15 17  1  0
 17 18  2  0
  7 19  2  0
 19 20  1  0
 20 21  1  0
 21  2  1  0
 20  5  2  0
 18 12  1  0
  1 22  1  0
  1 23  1  0
  1 24  1  0
  2 25  1  0
  3 26  1  0
  3 27  1  0
  4 28  1  0
  4 29  1  0
 10 30  1  0
 11 31  1  0
 11 32  1  0
 13 33  1  0
 14 34  1  0
 17 35  1  0
 18 36  1  0
 19 37  1  0
 21 38  1  0
 21 39  1  0
M  END
