
     RDKit          3D

 32 33  0  0  0  0  0  0  0  0999 V2000
   -1.4910    2.3559   -1.1825 C   0  0  0  0  0  0  0  0  0  0  0  0
   -2.1734    1.0886   -0.7387 C   0  0  0  0  0  0  0  0  0  0  0  0
   -3.5811    1.0810   -0.8131 C   0  0  0  0  0  0  0  0  0  0  0  0
   -4.3163   -0.0669   -0.5363 C   0  0  0  0  0  0  0  0  0  0  0  0
   -3.6551   -1.2386   -0.1903 C   0  0  0  0  0  0  0  0  0  0  0  0
   -2.2547   -1.2574   -0.0827 C   0  0  0  0  0  0  0  0  0  0  0  0
   -1.5751   -2.5324    0.2836 C   0  0  0  0  0  0  0  0  0  0  0  0
   -0.3693   -2.7193    0.2769 O   0  0  0  0  0  0  0  0  0  0  0  0
   -2.4233   -3.5136    0.6399 O   0  0  0  0  0  0  0  0  0  0  0  0
   -1.4986   -0.0753   -0.3074 C   0  0  0  0  0  0  0  0  0  0  0  0
   -0.0869   -0.1394   -0.1360 N   0  0  0  0  0  0  0  0  0  0  0  0
    0.7172    0.8380    0.4208 C   0  0  0  0  0  0  0  0  0  0  0  0
    0.3385    1.9000    0.8999 O   0  0  0  0  0  0  0  0  0  0  0  0
    2.1698    0.4935    0.5034 C   0  0  0  0  0  0  0  0  0  0  0  0
    2.7711   -0.4145   -0.3826 C   0  0  0  0  0  0  0  0  0  0  0  0
    4.1346   -0.7004   -0.2712 C   0  0  0  0  0  0  0  0  0  0  0  0
    4.8915   -0.0755    0.7142 C   0  0  0  0  0  0  0  0  0  0  0  0
    6.1978   -0.3520    0.8157 F   0  0  0  0  0  0  0  0  0  0  0  0
    4.3142    0.8361    1.5902 C   0  0  0  0  0  0  0  0  0  0  0  0
    2.9523    1.1250    1.4829 C   0  0  0  0  0  0  0  0  0  0  0  0
   -1.4325    3.0712   -0.3575 H   0  0  0  0  0  0  0  0  0  0  0  0
   -2.0558    2.8279   -1.9955 H   0  0  0  0  0  0  0  0  0  0  0  0
   -0.4951    2.1624   -1.5909 H   0  0  0  0  0  0  0  0  0  0  0  0
   -4.1130    1.9827   -1.1146 H   0  0  0  0  0  0  0  0  0  0  0  0
   -5.4008   -0.0510   -0.6100 H   0  0  0  0  0  0  0  0  0  0  0  0
   -4.2430   -2.1337   -0.0014 H   0  0  0  0  0  0  0  0  0  0  0  0
   -1.8450   -4.2731    0.8618 H   0  0  0  0  0  0  0  0  0  0  0  0
    0.2855   -1.0865   -0.0447 H   0  0  0  0  0  0  0  0  0  0  0  0
    2.2008   -0.8923   -1.1750 H   0  0  0  0  0  0  0  0  0  0  0  0
    4.6120   -1.4005   -0.9500 H   0  0  0  0  0  0  0  0  0  0  0  0
    4.9249    1.3177    2.3474 H   0  0  0  0  0  0  0  0  0  0  0  0
    2.5000    1.8422    2.1658 H   0  0  0  0  0  0  0  0  0  0  0  0
  1  2  1  0
  2  3  2  0
  3  4  1  0
  4  5  2  0
  5  6  1  0
  6  7  1  0
  7  8  2  0
  7  9  1  0
  6 10  2  0
 10 11  1  0
 11 12  1  0
 12 13  2  0
 12 14  1  0
 14 15  2  0
 15 16  1  0
 16 17  2  0
 17 18  1  0
 17 19  1  0
 19 20  2  0
 10  2  1  0
 20 14  1  0
  1 21  1  0
  1 22  1  0
  1 23  1  0
  3 24  1  0
  4 25  1  0
  5 26  1  0
  9 27  1  0
 11 28  1  0
 15 29  1  0
 16 30  1  0
 19 31  1  0
 20 32  1  0
M  END
