
     RDKit          3D

 38 40  0  0  0  0  0  0  0  0999 V2000
    0.5303   -1.4508    2.9519 C   0  0  0  0  0  0  0  0  0  0  0  0
   -0.3163   -0.2113    3.0689 C   0  0  0  0  0  0  0  0  0  0  0  0
   -0.5912    0.3207    4.3401 C   0  0  0  0  0  0  0  0  0  0  0  0
   -1.3703    1.4646    4.4712 C   0  0  0  0  0  0  0  0  0  0  0  0
   -1.8784    2.0831    3.3341 C   0  0  0  0  0  0  0  0  0  0  0  0
   -1.6068    1.5575    2.0602 C   0  0  0  0  0  0  0  0  0  0  0  0
   -2.1091    2.1636    0.9053 C   0  0  0  0  0  0  0  0  0  0  0  0
   -1.8248    1.6217   -0.3506 C   0  0  0  0  0  0  0  0  0  0  0  0
   -2.3724    2.2476   -1.5151 C   0  0  0  0  0  0  0  0  0  0  0  0
   -2.8207    2.8074   -2.4289 N   0  0  0  0  0  0  0  0  0  0  0  0
   -1.0339    0.4728   -0.4272 C   0  0  0  0  0  0  0  0  0  0  0  0
   -0.7035   -0.0986   -1.6755 N   0  0  0  0  0  0  0  0  0  0  0  0
    0.4218    0.6446   -2.3033 C   0  0  0  0  0  0  0  0  0  0  0  0
    1.2154   -0.2456   -3.2872 C   0  0  0  0  0  0  0  0  0  0  0  0
    1.8048   -1.4630   -2.6873 N   0  0  0  0  0  0  0  0  0  0  0  0
    3.2042   -1.2670   -2.3190 C   0  0  0  0  0  0  0  0  0  0  0  0
    1.0199   -1.9172   -1.5132 C   0  0  0  0  0  0  0  0  0  0  0  0
   -0.4799   -1.5657   -1.6137 C   0  0  0  0  0  0  0  0  0  0  0  0
   -0.5506   -0.1156    0.6951 N   0  0  0  0  0  0  0  0  0  0  0  0
   -0.8195    0.3988    1.9129 C   0  0  0  0  0  0  0  0  0  0  0  0
    1.4358   -1.2384    2.3740 H   0  0  0  0  0  0  0  0  0  0  0  0
    0.8428   -1.8184    3.9350 H   0  0  0  0  0  0  0  0  0  0  0  0
   -0.0341   -2.2517    2.4631 H   0  0  0  0  0  0  0  0  0  0  0  0
   -0.1970   -0.1588    5.2338 H   0  0  0  0  0  0  0  0  0  0  0  0
   -1.5813    1.8720    5.4568 H   0  0  0  0  0  0  0  0  0  0  0  0
   -2.4878    2.9772    3.4477 H   0  0  0  0  0  0  0  0  0  0  0  0
   -2.7277    3.0561    0.9801 H   0  0  0  0  0  0  0  0  0  0  0  0
    0.0242    1.5035   -2.8554 H   0  0  0  0  0  0  0  0  0  0  0  0
    1.1172    1.0304   -1.5446 H   0  0  0  0  0  0  0  0  0  0  0  0
    1.9814    0.3552   -3.7930 H   0  0  0  0  0  0  0  0  0  0  0  0
    0.5306   -0.5750   -4.0798 H   0  0  0  0  0  0  0  0  0  0  0  0
    3.8039   -1.0293   -3.2045 H   0  0  0  0  0  0  0  0  0  0  0  0
    3.6226   -2.1866   -1.8948 H   0  0  0  0  0  0  0  0  0  0  0  0
    3.3323   -0.4593   -1.5895 H   0  0  0  0  0  0  0  0  0  0  0  0
    1.4199   -1.4794   -0.5894 H   0  0  0  0  0  0  0  0  0  0  0  0
    1.1284   -3.0044   -1.4273 H   0  0  0  0  0  0  0  0  0  0  0  0
   -1.0428   -2.0394   -0.7992 H   0  0  0  0  0  0  0  0  0  0  0  0
   -0.8873   -2.0015   -2.5356 H   0  0  0  0  0  0  0  0  0  0  0  0
  1  2  1  0
  2  3  2  0
  3  4  1  0
  4  5  2  0
  5  6  1  0
  6  7  2  0
  7  8  1  0
  8  9  1  0
  9 10  3  0
  8 11  2  0
 11 12  1  0
 12 13  1  0
 13 14  1  0
 14 15  1  0
 15 16  1  0
 15 17  1  0
 17 18  1  0
 11 19  1  0
 19 20  2  0
 20  2  1  0
 20  6  1  0
 18 12  1  0
  1 21  1  0
  1 22  1  0
  1 23  1  0
  3 24  1  0
  4 25  1  0
  5 26  1  0
  7 27  1  0
 13 28  1  0
 13 29  1  0
 14 30  1  0
 14 31  1  0
 16 32  1  0
 16 33  1  0
 16 34  1  0
 17 35  1  0
 17 36  1  0
 18 37  1  0
 18 38  1  0
M  END
