
     RDKit          3D

 42 48  0  0  0  0  0  0  0  0999 V2000
    5.8462    1.5482   -0.6341 Si  0  0  0  0  0  4  0  0  0  0  0  0
    7.3522    0.4573   -0.4379 C   0  0  0  0  0  0  0  0  0  0  0  0
    7.0048   -0.7916   -0.0854 C   0  0  0  0  0  0  0  0  0  0  0  0
    5.5761   -1.0288    0.0656 C   0  0  0  0  0  0  0  0  0  0  0  0
    4.7581    0.0252   -0.1632 C   0  0  0  0  0  0  0  0  0  0  0  0
    3.3141    0.1038   -0.0948 C   0  0  0  0  0  0  0  0  0  0  0  0
    2.4924    1.1601   -0.3221 C   0  0  0  0  0  0  0  0  0  0  0  0
    1.1112    0.8452   -0.1541 C   0  0  0  0  0  0  0  0  0  0  0  0
   -0.1973    1.9037   -0.3519 S   0  0  0  0  0  0  0  0  0  0  0  0
   -1.3828    0.6760    0.0444 C   0  0  0  0  0  0  0  0  0  0  0  0
   -0.6872   -0.5105    0.3136 C   0  0  0  0  0  0  0  0  0  0  0  0
    0.6907   -0.4158    0.2035 C   0  0  0  0  0  0  0  0  0  0  0  0
    2.2228   -1.4610    0.3839 Si  0  0  0  0  0  4  0  0  0  0  0  0
   -1.4689   -1.6577    0.6638 C   0  0  0  0  0  0  0  0  0  0  0  0
   -1.0782   -2.9279    0.9740 C   0  0  0  0  0  0  0  0  0  0  0  0
   -2.2476   -3.6142    1.2269 N   0  0  0  0  0  0  0  0  0  0  0  0
   -3.3348   -2.7746    1.0732 C   0  0  0  0  0  0  0  0  0  0  0  0
   -2.8675   -1.5263    0.7157 C   0  0  0  0  0  0  0  0  0  0  0  0
   -3.6562   -0.3857    0.4643 C   0  0  0  0  0  0  0  0  0  0  0  0
   -5.1115   -0.3456    0.5438 C   0  0  0  0  0  0  0  0  0  0  0  0
   -5.8824    0.8048    0.2887 C   0  0  0  0  0  0  0  0  0  0  0  0
   -5.0612    1.8711   -0.0428 C   0  0  0  0  0  0  0  0  0  0  0  0
   -5.4881    3.1347   -0.3490 C   0  0  0  0  0  0  0  0  0  0  0  0
   -4.4091    3.9221   -0.6229 O   0  0  0  0  0  0  0  0  0  0  0  0
   -3.2887    3.1476   -0.4884 C   0  0  0  0  0  0  0  0  0  0  0  0
   -3.6287    1.8651   -0.1298 C   0  0  0  0  0  0  0  0  0  0  0  0
   -2.8120    0.7462    0.1143 C   0  0  0  0  0  0  0  0  0  0  0  0
    5.6279    1.9742   -2.0391 H   0  0  0  0  0  0  0  0  0  0  0  0
    5.7780    2.6186    0.3919 H   0  0  0  0  0  0  0  0  0  0  0  0
    8.3510    0.8309   -0.5986 H   0  0  0  0  0  0  0  0  0  0  0  0
    7.7193   -1.5888    0.0818 H   0  0  0  0  0  0  0  0  0  0  0  0
    5.2508   -2.0219    0.3491 H   0  0  0  0  0  0  0  0  0  0  0  0
    2.8077    2.1565   -0.6035 H   0  0  0  0  0  0  0  0  0  0  0  0
    2.3675   -2.5309   -0.6377 H   0  0  0  0  0  0  0  0  0  0  0  0
    2.5163   -1.8967    1.7743 H   0  0  0  0  0  0  0  0  0  0  0  0
   -0.1259   -3.4300    1.0472 H   0  0  0  0  0  0  0  0  0  0  0  0
   -2.3034   -4.5906    1.4873 H   0  0  0  0  0  0  0  0  0  0  0  0
   -4.3318   -3.1596    1.2361 H   0  0  0  0  0  0  0  0  0  0  0  0
   -5.6449   -1.2554    0.8162 H   0  0  0  0  0  0  0  0  0  0  0  0
   -6.9608    0.8273    0.3494 H   0  0  0  0  0  0  0  0  0  0  0  0
   -6.4507    3.6209   -0.4174 H   0  0  0  0  0  0  0  0  0  0  0  0
   -2.3673    3.6741   -0.6839 H   0  0  0  0  0  0  0  0  0  0  0  0
  1  2  1  0
  2  3  2  0
  3  4  1  0
  4  5  2  0
  5  6  1  0
  6  7  2  0
  7  8  1  0
  8  9  1  0
  9 10  1  0
 10 11  2  0
 11 12  1  0
 12 13  1  0
 11 14  1  0
 14 15  2  0
 15 16  1  0
 16 17  1  0
 17 18  2  0
 18 19  1  0
 19 20  1  0
 20 21  2  0
 21 22  1  0
 22 23  2  0
 23 24  1  0
 24 25  1  0
 25 26  2  0
 26 27  1  0
  5  1  1  0
 13  6  1  0
 18 14  1  0
 27 19  2  0
 12  8  2  0
 26 22  1  0
 27 10  1  0
  1 28  1  0
  1 29  1  0
  2 30  1  0
  3 31  1  0
  4 32  1  0
  7 33  1  0
 13 34  1  0
 13 35  1  0
 15 36  1  0
 16 37  1  0
 17 38  1  0
 20 39  1  0
 21 40  1  0
 23 41  1  0
 25 42  1  0
M  END
