
     RDKit          3D

 43 45  0  0  0  0  0  0  0  0999 V2000
   -2.7329    1.5013   -1.1619 C   0  0  0  0  0  0  0  0  0  0  0  0
   -2.2195    1.1870    0.2516 C   0  0  0  0  0  0  0  0  0  0  0  0
   -3.1923    1.7331    1.3181 C   0  0  0  0  0  0  0  0  0  0  0  0
   -4.0527    0.6614    1.9925 C   0  0  0  0  0  0  0  0  0  0  0  0
   -4.4515   -0.4457    1.0279 C   0  0  0  0  0  0  0  0  0  0  0  0
   -3.2380   -1.1491    0.4138 C   0  0  0  0  0  0  0  0  0  0  0  0
   -1.9454   -0.3154    0.4774 C   0  0  0  0  0  0  0  0  0  0  0  0
   -0.9321   -0.8224   -0.4394 N   0  0  0  0  0  0  0  0  0  0  0  0
   -0.2859   -2.0247   -0.2258 C   0  0  0  0  0  0  0  0  0  0  0  0
   -0.5465   -2.7943    0.6947 O   0  0  0  0  0  0  0  0  0  0  0  0
    0.8575   -2.2919   -1.1989 C   0  0  0  0  0  0  0  0  0  0  0  0
    2.0542   -1.6357   -0.6987 N   0  0  0  0  0  0  0  0  0  0  0  0
    2.9329   -2.3271    0.0991 C   0  0  0  0  0  0  0  0  0  0  0  0
    4.0186   -1.8366    0.5943 N   0  0  0  0  0  0  0  0  0  0  0  0
    4.3204   -0.4975    0.3060 C   0  0  0  0  0  0  0  0  0  0  0  0
    5.5019    0.0518    0.8080 C   0  0  0  0  0  0  0  0  0  0  0  0
    5.8336    1.3851    0.5490 C   0  0  0  0  0  0  0  0  0  0  0  0
    4.9824    2.1833   -0.2159 C   0  0  0  0  0  0  0  0  0  0  0  0
    3.7988    1.6486   -0.7231 C   0  0  0  0  0  0  0  0  0  0  0  0
    3.4789    0.3121   -0.4591 C   0  0  0  0  0  0  0  0  0  0  0  0
    2.2366   -0.2898   -0.9757 C   0  0  0  0  0  0  0  0  0  0  0  0
    1.4130    0.3922   -1.5834 O   0  0  0  0  0  0  0  0  0  0  0  0
   -2.8581    2.5823   -1.2900 H   0  0  0  0  0  0  0  0  0  0  0  0
   -2.0257    1.1666   -1.9272 H   0  0  0  0  0  0  0  0  0  0  0  0
   -3.6981    1.0301   -1.3669 H   0  0  0  0  0  0  0  0  0  0  0  0
   -1.2705    1.7309    0.3584 H   0  0  0  0  0  0  0  0  0  0  0  0
   -3.8439    2.5004    0.8820 H   0  0  0  0  0  0  0  0  0  0  0  0
   -2.6164    2.2441    2.1003 H   0  0  0  0  0  0  0  0  0  0  0  0
   -3.4986    0.2248    2.8331 H   0  0  0  0  0  0  0  0  0  0  0  0
   -4.9469    1.1276    2.4219 H   0  0  0  0  0  0  0  0  0  0  0  0
   -5.0715   -0.0209    0.2292 H   0  0  0  0  0  0  0  0  0  0  0  0
   -5.0805   -1.1825    1.5409 H   0  0  0  0  0  0  0  0  0  0  0  0
   -3.0764   -2.0985    0.9393 H   0  0  0  0  0  0  0  0  0  0  0  0
   -3.4733   -1.4241   -0.6224 H   0  0  0  0  0  0  0  0  0  0  0  0
   -1.5199   -0.4276    1.4846 H   0  0  0  0  0  0  0  0  0  0  0  0
   -0.4134   -0.1389   -0.9942 H   0  0  0  0  0  0  0  0  0  0  0  0
    0.5985   -1.9139   -2.1940 H   0  0  0  0  0  0  0  0  0  0  0  0
    1.0117   -3.3738   -1.2709 H   0  0  0  0  0  0  0  0  0  0  0  0
    2.6533   -3.3740    0.3007 H   0  0  0  0  0  0  0  0  0  0  0  0
    6.1662   -0.5661    1.4073 H   0  0  0  0  0  0  0  0  0  0  0  0
    6.7569    1.7991    0.9473 H   0  0  0  0  0  0  0  0  0  0  0  0
    5.2413    3.2205   -0.4150 H   0  0  0  0  0  0  0  0  0  0  0  0
    3.1328    2.2682   -1.3187 H   0  0  0  0  0  0  0  0  0  0  0  0
  1  2  1  0
  2  3  1  0
  3  4  1  0
  4  5  1  0
  5  6  1  0
  6  7  1  0
  7  8  1  0
  8  9  1  0
  9 10  2  0
  9 11  1  0
 11 12  1  0
 12 13  1  0
 13 14  2  0
 14 15  1  0
 15 16  2  0
 16 17  1  0
 17 18  2  0
 18 19  1  0
 19 20  2  0
 20 21  1  0
 21 22  2  0
  7  2  1  0
 21 12  1  0
 20 15  1  0
  1 23  1  0
  1 24  1  0
  1 25  1  0
  2 26  1  0
  3 27  1  0
  3 28  1  0
  4 29  1  0
  4 30  1  0
  5 31  1  0
  5 32  1  0
  6 33  1  0
  6 34  1  0
  7 35  1  0
  8 36  1  0
 11 37  1  0
 11 38  1  0
 13 39  1  0
 16 40  1  0
 17 41  1  0
 18 42  1  0
 19 43  1  0
M  END
