
     RDKit          3D

 39 40  0  0  0  0  0  0  0  0999 V2000
   -4.7546   -0.3995    1.7184 C   0  0  0  0  0  0  0  0  0  0  0  0
   -5.0961   -0.2119    0.2652 C   0  0  0  0  0  0  0  0  0  0  0  0
   -6.4292    0.0130   -0.1131 C   0  0  0  0  0  0  0  0  0  0  0  0
   -6.7642    0.1898   -1.4542 C   0  0  0  0  0  0  0  0  0  0  0  0
   -5.7709    0.1409   -2.4276 C   0  0  0  0  0  0  0  0  0  0  0  0
   -4.4396   -0.0817   -2.0640 C   0  0  0  0  0  0  0  0  0  0  0  0
   -4.0930   -0.2560   -0.7206 C   0  0  0  0  0  0  0  0  0  0  0  0
   -2.8218   -0.4732   -0.2598 O   0  0  0  0  0  0  0  0  0  0  0  0
   -1.7706   -0.4958   -1.2163 C   0  0  0  0  0  0  0  0  0  0  0  0
   -0.4339   -0.6762   -0.5218 C   0  0  0  0  0  0  0  0  0  0  0  0
    0.4163   -1.4913   -0.8621 O   0  0  0  0  0  0  0  0  0  0  0  0
   -0.2866    0.2150    0.4990 O   0  0  0  0  0  0  0  0  0  0  0  0
    1.0078    0.2029    1.0949 C   0  0  0  0  0  0  0  0  0  0  0  0
    2.0815    0.8252    0.1967 C   0  0  0  0  0  0  0  0  0  0  0  0
    1.8181    1.5505   -0.7597 O   0  0  0  0  0  0  0  0  0  0  0  0
    3.3711    0.5162    0.5695 N   0  0  0  0  0  0  0  0  0  0  0  0
    4.4856    0.9731   -0.2262 C   0  0  0  0  0  0  0  0  0  0  0  0
    5.7538    0.5296    0.4262 C   0  0  0  0  0  0  0  0  0  0  0  0
    6.4878   -0.6124    0.1726 C   0  0  0  0  0  0  0  0  0  0  0  0
    7.6505   -0.7039    0.9914 C   0  0  0  0  0  0  0  0  0  0  0  0
    7.7663    0.3737    1.8396 C   0  0  0  0  0  0  0  0  0  0  0  0
    6.4758    1.4781    1.6579 S   0  0  0  0  0  0  0  0  0  0  0  0
   -5.6477   -0.3597    2.3514 H   0  0  0  0  0  0  0  0  0  0  0  0
   -4.0733    0.3901    2.0537 H   0  0  0  0  0  0  0  0  0  0  0  0
   -4.2843   -1.3768    1.8723 H   0  0  0  0  0  0  0  0  0  0  0  0
   -7.2133    0.0525    0.6385 H   0  0  0  0  0  0  0  0  0  0  0  0
   -7.7980    0.3645   -1.7383 H   0  0  0  0  0  0  0  0  0  0  0  0
   -6.0314    0.2768   -3.4747 H   0  0  0  0  0  0  0  0  0  0  0  0
   -3.7015   -0.1114   -2.8582 H   0  0  0  0  0  0  0  0  0  0  0  0
   -1.9055   -1.3453   -1.8954 H   0  0  0  0  0  0  0  0  0  0  0  0
   -1.7201    0.4406   -1.7825 H   0  0  0  0  0  0  0  0  0  0  0  0
    0.9543    0.8037    2.0093 H   0  0  0  0  0  0  0  0  0  0  0  0
    1.2876   -0.8171    1.3874 H   0  0  0  0  0  0  0  0  0  0  0  0
    3.5334   -0.2233    1.2401 H   0  0  0  0  0  0  0  0  0  0  0  0
    4.3928    0.5377   -1.2283 H   0  0  0  0  0  0  0  0  0  0  0  0
    4.4317    2.0636   -0.3302 H   0  0  0  0  0  0  0  0  0  0  0  0
    6.2057   -1.3520   -0.5690 H   0  0  0  0  0  0  0  0  0  0  0  0
    8.3672   -1.5155    0.9556 H   0  0  0  0  0  0  0  0  0  0  0  0
    8.5484    0.5655    2.5620 H   0  0  0  0  0  0  0  0  0  0  0  0
  1  2  1  0
  2  3  2  0
  3  4  1  0
  4  5  2  0
  5  6  1  0
  6  7  2  0
  7  8  1  0
  8  9  1  0
  9 10  1  0
 10 11  2  0
 10 12  1  0
 12 13  1  0
 13 14  1  0
 14 15  2  0
 14 16  1  0
 16 17  1  0
 17 18  1  0
 18 19  2  0
 19 20  1  0
 20 21  2  0
 21 22  1  0
  7  2  1  0
 22 18  1  0
  1 23  1  0
  1 24  1  0
  1 25  1  0
  3 26  1  0
  4 27  1  0
  5 28  1  0
  6 29  1  0
  9 30  1  0
  9 31  1  0
 13 32  1  0
 13 33  1  0
 16 34  1  0
 17 35  1  0
 17 36  1  0
 19 37  1  0
 20 38  1  0
 21 39  1  0
M  END
