
     RDKit          3D

 33 37  0  0  0  0  0  0  0  0999 V2000
    2.2028    0.0253    1.6268 Si  0  0  0  0  0  4  0  0  0  0  0  0
    3.1590   -0.2039    0.0034 C   0  0  0  0  0  0  0  0  0  0  0  0
    2.3204   -0.2590   -1.0561 C   0  0  0  0  0  0  0  0  0  0  0  0
    0.8909   -0.1320   -0.7215 C   0  0  0  0  0  0  0  0  0  0  0  0
   -0.1475   -0.1597   -1.6426 C   0  0  0  0  0  0  0  0  0  0  0  0
   -1.4688   -0.0317   -1.2337 C   0  0  0  0  0  0  0  0  0  0  0  0
   -2.4073   -0.0693   -2.1879 N   0  0  0  0  0  0  0  0  0  0  0  0
   -3.6998    0.0529   -1.8188 C   0  0  0  0  0  0  0  0  0  0  0  0
   -4.1354    0.2164   -0.5103 C   0  0  0  0  0  0  0  0  0  0  0  0
   -5.4971    0.3374   -0.1965 C   0  0  0  0  0  0  0  0  0  0  0  0
   -5.8589    0.4977    1.1272 C   0  0  0  0  0  0  0  0  0  0  0  0
   -4.9712    0.5442    2.1361 N   0  0  0  0  0  0  0  0  0  0  0  0
   -3.6615    0.4245    1.8026 C   0  0  0  0  0  0  0  0  0  0  0  0
   -3.1585    0.2571    0.4996 C   0  0  0  0  0  0  0  0  0  0  0  0
   -1.7748    0.1305    0.1445 C   0  0  0  0  0  0  0  0  0  0  0  0
   -0.7072    0.1576    1.0797 C   0  0  0  0  0  0  0  0  0  0  0  0
    0.6064    0.0272    0.6423 C   0  0  0  0  0  0  0  0  0  0  0  0
    4.5771   -0.3070   -0.1078 C   0  0  0  0  0  0  0  0  0  0  0  0
    5.3712   -0.4772   -1.2396 C   0  0  0  0  0  0  0  0  0  0  0  0
    6.7388   -0.5456   -1.0535 N   0  0  0  0  0  0  0  0  0  0  0  0
    6.9998   -0.4277    0.2254 C   0  0  0  0  0  0  0  0  0  0  0  0
    5.6511   -0.2327    1.2543 S   0  0  0  0  0  0  0  0  0  0  0  0
    2.2960   -1.1524    2.5275 H   0  0  0  0  0  0  0  0  0  0  0  0
    2.4573    1.3397    2.2707 H   0  0  0  0  0  0  0  0  0  0  0  0
    2.6161   -0.3847   -2.0898 H   0  0  0  0  0  0  0  0  0  0  0  0
    0.0628   -0.2827   -2.7020 H   0  0  0  0  0  0  0  0  0  0  0  0
   -4.4030    0.0129   -2.6475 H   0  0  0  0  0  0  0  0  0  0  0  0
   -6.2630    0.3079   -0.9646 H   0  0  0  0  0  0  0  0  0  0  0  0
   -6.9009    0.5955    1.4181 H   0  0  0  0  0  0  0  0  0  0  0  0
   -3.0030    0.4707    2.6648 H   0  0  0  0  0  0  0  0  0  0  0  0
   -0.8961    0.2796    2.1425 H   0  0  0  0  0  0  0  0  0  0  0  0
    4.9940   -0.5595   -2.2520 H   0  0  0  0  0  0  0  0  0  0  0  0
    8.0102   -0.4520    0.6123 H   0  0  0  0  0  0  0  0  0  0  0  0
  1  2  1  0
  2  3  2  0
  3  4  1  0
  4  5  2  0
  5  6  1  0
  6  7  2  0
  7  8  1  0
  8  9  2  0
  9 10  1  0
 10 11  2  0
 11 12  1  0
 12 13  2  0
 13 14  1  0
 14 15  2  0
 15 16  1  0
 16 17  2  0
  2 18  1  0
 18 19  2  0
 19 20  1  0
 20 21  2  0
 21 22  1  0
 17  1  1  0
 22 18  1  0
 17  4  1  0
 15  6  1  0
 14  9  1  0
  1 23  1  0
  1 24  1  0
  3 25  1  0
  5 26  1  0
  8 27  1  0
 10 28  1  0
 11 29  1  0
 13 30  1  0
 16 31  1  0
 19 32  1  0
 21 33  1  0
M  END
