
     RDKit          3D

 42 48  0  0  0  0  0  0  0  0999 V2000
   -5.2146   -0.6929    1.5734 Si  0  0  0  0  0  4  0  0  0  0  0  0
   -6.6752    0.4053    1.1070 C   0  0  0  0  0  0  0  0  0  0  0  0
   -6.3610    1.2356    0.0955 C   0  0  0  0  0  0  0  0  0  0  0  0
   -5.0002    1.1163   -0.4051 C   0  0  0  0  0  0  0  0  0  0  0  0
   -4.2489    0.1766    0.2033 C   0  0  0  0  0  0  0  0  0  0  0  0
   -2.8572   -0.1265   -0.0672 C   0  0  0  0  0  0  0  0  0  0  0  0
   -1.8007    0.6418    0.4719 C   0  0  0  0  0  0  0  0  0  0  0  0
   -0.4554    0.3091    0.1883 C   0  0  0  0  0  0  0  0  0  0  0  0
    0.7290    0.9063    0.6067 N   0  0  0  0  0  0  0  0  0  0  0  0
    1.7970    0.2336    0.0765 C   0  0  0  0  0  0  0  0  0  0  0  0
    1.2999   -0.8067   -0.6954 C   0  0  0  0  0  0  0  0  0  0  0  0
    2.7218   -1.7587   -1.4503 Si  0  0  0  0  0  4  0  0  0  0  0  0
    3.9861   -0.5552   -0.5747 C   0  0  0  0  0  0  0  0  0  0  0  0
    5.4063   -0.6007   -0.6456 C   0  0  0  0  0  0  0  0  0  0  0  0
    6.2175    0.3335    0.0385 C   0  0  0  0  0  0  0  0  0  0  0  0
    5.4829    1.2792    0.7711 C   0  0  0  0  0  0  0  0  0  0  0  0
    6.0864    2.2706    1.5041 C   0  0  0  0  0  0  0  0  0  0  0  0
    4.9222    3.2649    2.2848 S   0  0  0  0  0  0  0  0  0  0  0  0
    3.6031    2.3645    1.6390 C   0  0  0  0  0  0  0  0  0  0  0  0
    4.0346    1.3300    0.8467 C   0  0  0  0  0  0  0  0  0  0  0  0
    3.2291    0.4136    0.1756 C   0  0  0  0  0  0  0  0  0  0  0  0
   -0.0711   -0.7552   -0.6232 C   0  0  0  0  0  0  0  0  0  0  0  0
   -1.1048   -1.5505   -1.2056 C   0  0  0  0  0  0  0  0  0  0  0  0
   -0.9341   -2.6209   -2.0330 C   0  0  0  0  0  0  0  0  0  0  0  0
   -2.4794   -3.2335   -2.4838 S   0  0  0  0  0  0  0  0  0  0  0  0
   -3.3089   -2.0375   -1.5545 C   0  0  0  0  0  0  0  0  0  0  0  0
   -2.4440   -1.1871   -0.8951 C   0  0  0  0  0  0  0  0  0  0  0  0
   -5.4908   -2.1205    1.2748 H   0  0  0  0  0  0  0  0  0  0  0  0
   -4.7071   -0.3807    2.9333 H   0  0  0  0  0  0  0  0  0  0  0  0
   -7.6212    0.3318    1.6195 H   0  0  0  0  0  0  0  0  0  0  0  0
   -7.0502    1.9526   -0.3334 H   0  0  0  0  0  0  0  0  0  0  0  0
   -4.6461    1.7527   -1.2073 H   0  0  0  0  0  0  0  0  0  0  0  0
   -2.0247    1.4915    1.1130 H   0  0  0  0  0  0  0  0  0  0  0  0
    0.7727    1.7132    1.2099 H   0  0  0  0  0  0  0  0  0  0  0  0
    2.8763   -3.1439   -0.9352 H   0  0  0  0  0  0  0  0  0  0  0  0
    2.8254   -1.6413   -2.9280 H   0  0  0  0  0  0  0  0  0  0  0  0
    5.8915   -1.3731   -1.2411 H   0  0  0  0  0  0  0  0  0  0  0  0
    7.2990    0.3038   -0.0117 H   0  0  0  0  0  0  0  0  0  0  0  0
    7.1406    2.4747    1.6310 H   0  0  0  0  0  0  0  0  0  0  0  0
    2.6012    2.6683    1.8945 H   0  0  0  0  0  0  0  0  0  0  0  0
   -0.0369   -3.0861   -2.4096 H   0  0  0  0  0  0  0  0  0  0  0  0
   -4.3900   -2.0382   -1.5587 H   0  0  0  0  0  0  0  0  0  0  0  0
  1  2  1  0
  2  3  2  0
  3  4  1  0
  4  5  2  0
  5  6  1  0
  6  7  2  0
  7  8  1  0
  8  9  1  0
  9 10  1  0
 10 11  2  0
 11 12  1  0
 12 13  1  0
 13 14  1  0
 14 15  2  0
 15 16  1  0
 16 17  2  0
 17 18  1  0
 18 19  1  0
 19 20  2  0
 20 21  1  0
 11 22  1  0
 22 23  1  0
 23 24  2  0
 24 25  1  0
 25 26  1  0
 26 27  2  0
  5  1  1  0
 27  6  1  0
 22  8  2  0
 27 23  1  0
 10 21  1  0
 21 13  2  0
 20 16  1  0
  1 28  1  0
  1 29  1  0
  2 30  1  0
  3 31  1  0
  4 32  1  0
  7 33  1  0
  9 34  1  0
 12 35  1  0
 12 36  1  0
 14 37  1  0
 15 38  1  0
 17 39  1  0
 19 40  1  0
 24 41  1  0
 26 42  1  0
M  END
