
     RDKit          3D

 39 41  0  0  0  0  0  0  0  0999 V2000
    4.6223   -0.9889   -0.8985 C   0  0  0  0  0  0  0  0  0  0  0  0
    4.7432   -0.1625    0.3412 C   0  0  0  0  0  0  0  0  0  0  0  0
    5.9973    0.1279    0.9776 C   0  0  0  0  0  0  0  0  0  0  0  0
    5.8568    0.9035    2.1046 C   0  0  0  0  0  0  0  0  0  0  0  0
    4.2253    1.2904    2.4094 S   0  0  0  0  0  0  0  0  0  0  0  0
    3.6887    0.4211    1.0322 C   0  0  0  0  0  0  0  0  0  0  0  0
    2.2644    0.4015    0.7655 C   0  0  0  0  0  0  0  0  0  0  0  0
    1.7867   -0.2071   -0.2742 N   0  0  0  0  0  0  0  0  0  0  0  0
    0.4265   -0.1689   -0.4169 C   0  0  0  0  0  0  0  0  0  0  0  0
   -0.2720   -0.0052   -1.5533 C   0  0  0  0  0  0  0  0  0  0  0  0
    0.3214    0.2132   -2.9073 C   0  0  0  0  0  0  0  0  0  0  0  0
   -1.6627   -0.0830   -1.3782 N   0  0  0  0  0  0  0  0  0  0  0  0
   -2.4058   -1.0315   -2.2272 C   0  0  0  0  0  0  0  0  0  0  0  0
   -1.8592   -0.2929    0.0196 N   0  0  0  0  0  0  0  0  0  0  0  0
   -3.0773    0.0589    0.6589 C   0  0  0  0  0  0  0  0  0  0  0  0
   -3.3071   -0.2742    2.0008 C   0  0  0  0  0  0  0  0  0  0  0  0
   -4.5069    0.0679    2.6340 C   0  0  0  0  0  0  0  0  0  0  0  0
   -5.4954    0.7543    1.9354 C   0  0  0  0  0  0  0  0  0  0  0  0
   -5.2837    1.1015    0.6049 C   0  0  0  0  0  0  0  0  0  0  0  0
   -4.0841    0.7570   -0.0264 C   0  0  0  0  0  0  0  0  0  0  0  0
   -0.6103   -0.3950    0.6522 C   0  0  0  0  0  0  0  0  0  0  0  0
   -0.3384   -0.5587    1.8331 O   0  0  0  0  0  0  0  0  0  0  0  0
    4.1814   -0.4029   -1.7111 H   0  0  0  0  0  0  0  0  0  0  0  0
    4.0004   -1.8709   -0.7153 H   0  0  0  0  0  0  0  0  0  0  0  0
    5.6034   -1.3391   -1.2362 H   0  0  0  0  0  0  0  0  0  0  0  0
    6.9592   -0.2213    0.6208 H   0  0  0  0  0  0  0  0  0  0  0  0
    6.6360    1.2603    2.7640 H   0  0  0  0  0  0  0  0  0  0  0  0
    1.6156    0.9477    1.4770 H   0  0  0  0  0  0  0  0  0  0  0  0
    1.4017    0.3843   -2.8622 H   0  0  0  0  0  0  0  0  0  0  0  0
   -0.1302    1.0910   -3.3813 H   0  0  0  0  0  0  0  0  0  0  0  0
    0.1489   -0.6555   -3.5503 H   0  0  0  0  0  0  0  0  0  0  0  0
   -1.9970   -2.0440   -2.1304 H   0  0  0  0  0  0  0  0  0  0  0  0
   -2.3419   -0.7271   -3.2773 H   0  0  0  0  0  0  0  0  0  0  0  0
   -3.4678   -1.0705   -1.9691 H   0  0  0  0  0  0  0  0  0  0  0  0
   -2.5670   -0.8237    2.5772 H   0  0  0  0  0  0  0  0  0  0  0  0
   -4.6639   -0.2050    3.6746 H   0  0  0  0  0  0  0  0  0  0  0  0
   -6.4256    1.0228    2.4293 H   0  0  0  0  0  0  0  0  0  0  0  0
   -6.0462    1.6497    0.0577 H   0  0  0  0  0  0  0  0  0  0  0  0
   -3.9368    1.0749   -1.0548 H   0  0  0  0  0  0  0  0  0  0  0  0
  1  2  1  0
  2  3  1  0
  3  4  2  0
  4  5  1  0
  5  6  1  0
  6  7  1  0
  7  8  2  3
  8  9  1  0
  9 10  2  0
 10 11  1  0
 10 12  1  0
 12 13  1  0
 12 14  1  0
 14 15  1  0
 15 16  2  0
 16 17  1  0
 17 18  2  0
 18 19  1  0
 19 20  2  0
 14 21  1  0
 21 22  2  0
  6  2  2  0
 21  9  1  0
 20 15  1  0
  1 23  1  0
  1 24  1  0
  1 25  1  0
  3 26  1  0
  4 27  1  0
  7 28  1  0
 11 29  1  0
 11 30  1  0
 11 31  1  0
 13 32  1  0
 13 33  1  0
 13 34  1  0
 16 35  1  0
 17 36  1  0
 18 37  1  0
 19 38  1  0
 20 39  1  0
M  END
