
     RDKit          3D

 49 54  0  0  0  0  0  0  0  0999 V2000
    7.1453    0.4891    2.9910 C   0  0  0  0  0  0  0  0  0  0  0  0
    7.8185    0.6620    1.6647 C   0  0  0  0  0  0  0  0  0  0  0  0
    9.2382    0.8373    1.5344 C   0  0  0  0  0  0  0  0  0  0  0  0
    9.6410    0.9742    0.2282 C   0  0  0  0  0  0  0  0  0  0  0  0
    8.3292    0.8884   -0.8511 S   0  0  0  0  0  0  0  0  0  0  0  0
    7.1833    0.6715    0.4211 C   0  0  0  0  0  0  0  0  0  0  0  0
    5.7602    0.5394    0.0854 C   0  0  0  0  0  0  0  0  0  0  0  0
    5.3969    0.3252   -1.1950 N   0  0  0  0  0  0  0  0  0  0  0  0
    4.0679    0.2063   -1.4912 N   0  0  0  0  0  0  0  0  0  0  0  0
    3.1687    0.3062   -0.4935 C   0  0  0  0  0  0  0  0  0  0  0  0
    1.7449    0.1760   -0.8301 C   0  0  0  0  0  0  0  0  0  0  0  0
    0.5647    0.4842    0.3844 S   0  0  0  0  0  0  0  0  0  0  0  0
   -0.7520    0.1812   -0.6591 C   0  0  0  0  0  0  0  0  0  0  0  0
   -2.1335    0.2614   -0.2341 C   0  0  0  0  0  0  0  0  0  0  0  0
   -3.2076   -0.4438   -0.7778 C   0  0  0  0  0  0  0  0  0  0  0  0
   -4.4217   -0.1133   -0.1331 C   0  0  0  0  0  0  0  0  0  0  0  0
   -4.2284    0.8258    0.8597 C   0  0  0  0  0  0  0  0  0  0  0  0
   -2.6542    1.3186    1.0479 S   0  0  0  0  0  0  0  0  0  0  0  0
   -5.4716    1.1232    1.4684 C   0  0  0  0  0  0  0  0  0  0  0  0
   -6.0021    2.1230    2.6874 S   0  0  0  0  0  0  0  0  0  0  0  0
   -7.6277    1.5711    2.4487 C   0  0  0  0  0  0  0  0  0  0  0  0
   -7.7325    0.6282    1.4361 C   0  0  0  0  0  0  0  0  0  0  0  0
   -6.4646    0.3721    0.8662 C   0  0  0  0  0  0  0  0  0  0  0  0
   -5.8982   -0.5231   -0.2467 C   0  0  0  0  0  0  0  0  0  0  0  0
   -6.0966   -2.0073    0.0678 C   0  0  0  0  0  0  0  0  0  0  0  0
   -6.4804   -0.1606   -1.6142 C   0  0  0  0  0  0  0  0  0  0  0  0
   -0.2985   -0.1651   -1.9162 C   0  0  0  0  0  0  0  0  0  0  0  0
    1.1340   -0.1690   -2.0340 C   0  0  0  0  0  0  0  0  0  0  0  0
    1.8371   -0.5089   -3.3116 C   0  0  0  0  0  0  0  0  0  0  0  0
    3.5328    0.5149    0.7878 N   0  0  0  0  0  0  0  0  0  0  0  0
    4.8616    0.6340    1.0839 N   0  0  0  0  0  0  0  0  0  0  0  0
    6.4719    1.3284    3.1939 H   0  0  0  0  0  0  0  0  0  0  0  0
    6.5731   -0.4441    3.0142 H   0  0  0  0  0  0  0  0  0  0  0  0
    7.8789    0.4487    3.8034 H   0  0  0  0  0  0  0  0  0  0  0  0
    9.9308    0.8623    2.3679 H   0  0  0  0  0  0  0  0  0  0  0  0
   10.6465    1.1192   -0.1431 H   0  0  0  0  0  0  0  0  0  0  0  0
   -3.1120   -1.1594   -1.5846 H   0  0  0  0  0  0  0  0  0  0  0  0
   -8.4192    1.9708    3.0678 H   0  0  0  0  0  0  0  0  0  0  0  0
   -8.6657    0.1661    1.1405 H   0  0  0  0  0  0  0  0  0  0  0  0
   -7.1608   -2.2697    0.0804 H   0  0  0  0  0  0  0  0  0  0  0  0
   -5.6828   -2.2729    1.0486 H   0  0  0  0  0  0  0  0  0  0  0  0
   -5.6014   -2.6394   -0.6785 H   0  0  0  0  0  0  0  0  0  0  0  0
   -6.0005   -0.7370   -2.4134 H   0  0  0  0  0  0  0  0  0  0  0  0
   -7.5570   -0.3626   -1.6518 H   0  0  0  0  0  0  0  0  0  0  0  0
   -6.3385    0.9022   -1.8464 H   0  0  0  0  0  0  0  0  0  0  0  0
   -0.9641   -0.3976   -2.7397 H   0  0  0  0  0  0  0  0  0  0  0  0
    1.1236   -0.8075   -4.0870 H   0  0  0  0  0  0  0  0  0  0  0  0
    2.3928    0.3562   -3.6867 H   0  0  0  0  0  0  0  0  0  0  0  0
    2.5296   -1.3437   -3.1613 H   0  0  0  0  0  0  0  0  0  0  0  0
  1  2  1  0
  2  3  1  0
  3  4  2  0
  4  5  1  0
  5  6  1  0
  6  7  1  0
  7  8  2  0
  8  9  1  0
  9 10  2  0
 10 11  1  0
 11 12  1  0
 12 13  1  0
 13 14  1  0
 14 15  2  0
 15 16  1  0
 16 17  2  0
 17 18  1  0
 17 19  1  0
 19 20  1  0
 20 21  1  0
 21 22  2  0
 22 23  1  0
 23 24  1  0
 24 25  1  0
 24 26  1  0
 13 27  2  0
 27 28  1  0
 28 29  1  0
 10 30  1  0
 30 31  2  0
  6  2  2  0
 31  7  1  0
 28 11  2  0
 18 14  1  0
 23 19  2  0
 24 16  1  0
  1 32  1  0
  1 33  1  0
  1 34  1  0
  3 35  1  0
  4 36  1  0
 15 37  1  0
 21 38  1  0
 22 39  1  0
 25 40  1  0
 25 41  1  0
 25 42  1  0
 26 43  1  0
 26 44  1  0
 26 45  1  0
 27 46  1  0
 29 47  1  0
 29 48  1  0
 29 49  1  0
M  END
