
     RDKit          3D

 40 41  0  0  0  0  0  0  0  0999 V2000
   -4.2335   -2.1007   -0.9407 C   0  0  0  0  0  0  0  0  0  0  0  0
   -3.7897   -0.8553   -0.1858 C   0  0  0  0  0  0  0  0  0  0  0  0
   -2.2611   -0.8412    0.0050 C   0  0  0  0  0  0  0  0  0  0  0  0
   -1.7879    0.4072    0.6147 N   0  0  0  0  0  0  0  0  0  0  0  0
   -0.4438    0.8088    0.6016 C   0  0  0  0  0  0  0  0  0  0  0  0
   -0.1447    1.9938    0.7570 O   0  0  0  0  0  0  0  0  0  0  0  0
    0.5790   -0.2034    0.3952 C   0  0  0  0  0  0  0  0  0  0  0  0
    0.7492   -1.4981    0.8542 C   0  0  0  0  0  0  0  0  0  0  0  0
    1.9794   -1.9665    0.3314 C   0  0  0  0  0  0  0  0  0  0  0  0
    2.5065   -0.9281   -0.4038 C   0  0  0  0  0  0  0  0  0  0  0  0
    3.7641   -0.7521   -1.1690 C   0  0  0  0  0  0  0  0  0  0  0  0
    4.8547   -0.7101   -0.2467 O   0  0  0  0  0  0  0  0  0  0  0  0
    5.0109    0.5817    0.3678 C   0  0  0  0  0  0  0  0  0  0  0  0
    6.1877    0.6118    1.3367 C   0  0  0  0  0  0  0  0  0  0  0  0
    7.3553    0.3349    0.7137 F   0  0  0  0  0  0  0  0  0  0  0  0
    6.3114    1.8416    1.8914 F   0  0  0  0  0  0  0  0  0  0  0  0
    6.0325   -0.2719    2.3473 F   0  0  0  0  0  0  0  0  0  0  0  0
    1.6680    0.1441   -0.3627 O   0  0  0  0  0  0  0  0  0  0  0  0
   -2.8219    1.4264    0.8010 C   0  0  0  0  0  0  0  0  0  0  0  0
   -3.7264    1.5464   -0.4422 C   0  0  0  0  0  0  0  0  0  0  0  0
   -3.0135    2.2383   -1.6000 C   0  0  0  0  0  0  0  0  0  0  0  0
   -4.2262    0.2873   -0.9347 O   0  0  0  0  0  0  0  0  0  0  0  0
   -5.3209   -2.0996   -1.0729 H   0  0  0  0  0  0  0  0  0  0  0  0
   -3.9475   -3.0123   -0.4074 H   0  0  0  0  0  0  0  0  0  0  0  0
   -3.7954   -2.1278   -1.9445 H   0  0  0  0  0  0  0  0  0  0  0  0
   -4.2978   -0.8403    0.7865 H   0  0  0  0  0  0  0  0  0  0  0  0
   -1.7600   -0.9416   -0.9653 H   0  0  0  0  0  0  0  0  0  0  0  0
   -1.9663   -1.6779    0.6433 H   0  0  0  0  0  0  0  0  0  0  0  0
    0.0843   -2.0329    1.5171 H   0  0  0  0  0  0  0  0  0  0  0  0
    2.4446   -2.9295    0.4931 H   0  0  0  0  0  0  0  0  0  0  0  0
    3.7506    0.1418   -1.8023 H   0  0  0  0  0  0  0  0  0  0  0  0
    3.9173   -1.6188   -1.8203 H   0  0  0  0  0  0  0  0  0  0  0  0
    4.0997    0.8432    0.9159 H   0  0  0  0  0  0  0  0  0  0  0  0
    5.1760    1.3302   -0.4152 H   0  0  0  0  0  0  0  0  0  0  0  0
   -3.4208    1.0958    1.6586 H   0  0  0  0  0  0  0  0  0  0  0  0
   -2.4003    2.3998    1.0704 H   0  0  0  0  0  0  0  0  0  0  0  0
   -4.6020    2.1493   -0.1752 H   0  0  0  0  0  0  0  0  0  0  0  0
   -2.1730    1.6387   -1.9654 H   0  0  0  0  0  0  0  0  0  0  0  0
   -2.6410    3.2244   -1.3065 H   0  0  0  0  0  0  0  0  0  0  0  0
   -3.6975    2.3629   -2.4467 H   0  0  0  0  0  0  0  0  0  0  0  0
  1  2  1  0
  2  3  1  0
  3  4  1  0
  4  5  1  0
  5  6  2  0
  5  7  1  0
  7  8  2  0
  8  9  1  0
  9 10  2  0
 10 11  1  0
 11 12  1  0
 12 13  1  0
 13 14  1  0
 14 15  1  0
 14 16  1  0
 14 17  1  0
 10 18  1  0
  4 19  1  0
 19 20  1  0
 20 21  1  0
 20 22  1  0
 22  2  1  0
 18  7  1  0
  1 23  1  0
  1 24  1  0
  1 25  1  0
  2 26  1  0
  3 27  1  0
  3 28  1  0
  8 29  1  0
  9 30  1  0
 11 31  1  0
 11 32  1  0
 13 33  1  0
 13 34  1  0
 19 35  1  0
 19 36  1  0
 20 37  1  0
 21 38  1  0
 21 39  1  0
 21 40  1  0
M  END
