
     RDKit          3D

 36 38  0  0  0  0  0  0  0  0999 V2000
   -2.8052   -1.9506    1.0419 C   0  0  0  0  0  0  0  0  0  0  0  0
   -2.1638   -1.7726   -0.3332 C   0  0  0  0  0  0  0  0  0  0  0  0
   -0.8665   -0.9385   -0.2586 C   0  0  0  0  0  0  0  0  0  0  0  0
   -1.1147    0.4952   -0.0906 N   0  0  0  0  0  0  0  0  0  0  0  0
   -0.2404    1.4084    0.4978 C   0  0  0  0  0  0  0  0  0  0  0  0
   -0.6073    2.5579    0.7519 O   0  0  0  0  0  0  0  0  0  0  0  0
    1.1402    0.9929    0.7989 C   0  0  0  0  0  0  0  0  0  0  0  0
    2.0245    1.7181    1.5809 C   0  0  0  0  0  0  0  0  0  0  0  0
    3.2003    1.0200    1.5823 N   0  0  0  0  0  0  0  0  0  0  0  0
    4.4043    1.3102    2.2190 C   0  0  0  0  0  0  0  0  0  0  0  0
    5.4408    0.4670    2.0732 C   0  0  0  0  0  0  0  0  0  0  0  0
    5.2701   -0.7229    1.2520 C   0  0  0  0  0  0  0  0  0  0  0  0
    4.1009   -0.9948    0.6389 C   0  0  0  0  0  0  0  0  0  0  0  0
    2.9997   -0.1049    0.7918 C   0  0  0  0  0  0  0  0  0  0  0  0
    1.7767   -0.1389    0.3071 N   0  0  0  0  0  0  0  0  0  0  0  0
   -2.3880    0.9866   -0.6102 C   0  0  0  0  0  0  0  0  0  0  0  0
   -2.9271    0.0631   -1.7107 C   0  0  0  0  0  0  0  0  0  0  0  0
   -4.2386    0.5895   -2.2762 C   0  0  0  0  0  0  0  0  0  0  0  0
   -3.1688   -1.2649   -1.2255 O   0  0  0  0  0  0  0  0  0  0  0  0
   -3.1366   -0.9952    1.4601 H   0  0  0  0  0  0  0  0  0  0  0  0
   -2.1095   -2.4160    1.7469 H   0  0  0  0  0  0  0  0  0  0  0  0
   -3.6964   -2.5831    0.9656 H   0  0  0  0  0  0  0  0  0  0  0  0
   -1.9024   -2.7722   -0.7000 H   0  0  0  0  0  0  0  0  0  0  0  0
   -0.2440   -1.3193    0.5554 H   0  0  0  0  0  0  0  0  0  0  0  0
   -0.3156   -1.0439   -1.2008 H   0  0  0  0  0  0  0  0  0  0  0  0
    1.9034    2.6520    2.1113 H   0  0  0  0  0  0  0  0  0  0  0  0
    4.4524    2.2153    2.8109 H   0  0  0  0  0  0  0  0  0  0  0  0
    6.3998    0.6471    2.5471 H   0  0  0  0  0  0  0  0  0  0  0  0
    6.1198   -1.3907    1.1446 H   0  0  0  0  0  0  0  0  0  0  0  0
    3.9723   -1.8788    0.0253 H   0  0  0  0  0  0  0  0  0  0  0  0
   -2.2600    2.0057   -0.9924 H   0  0  0  0  0  0  0  0  0  0  0  0
   -3.0814    1.0286    0.2376 H   0  0  0  0  0  0  0  0  0  0  0  0
   -2.1982   -0.0109   -2.5277 H   0  0  0  0  0  0  0  0  0  0  0  0
   -4.1163    1.5904   -2.7012 H   0  0  0  0  0  0  0  0  0  0  0  0
   -5.0110    0.6289   -1.5001 H   0  0  0  0  0  0  0  0  0  0  0  0
   -4.6133   -0.0788   -3.0589 H   0  0  0  0  0  0  0  0  0  0  0  0
  1  2  1  0
  2  3  1  0
  3  4  1  0
  4  5  1  0
  5  6  2  0
  5  7  1  0
  7  8  2  0
  8  9  1  0
  9 10  1  0
 10 11  2  0
 11 12  1  0
 12 13  2  0
 13 14  1  0
 14 15  2  0
  4 16  1  0
 16 17  1  0
 17 18  1  0
 17 19  1  0
 19  2  1  0
 15  7  1  0
 14  9  1  0
  1 20  1  0
  1 21  1  0
  1 22  1  0
  2 23  1  0
  3 24  1  0
  3 25  1  0
  8 26  1  0
 10 27  1  0
 11 28  1  0
 12 29  1  0
 13 30  1  0
 16 31  1  0
 16 32  1  0
 17 33  1  0
 18 34  1  0
 18 35  1  0
 18 36  1  0
M  END
