
     RDKit          3D

 40 42  0  0  0  0  0  0  0  0999 V2000
    8.1117   -0.1941    0.2788 C   0  0  0  0  0  0  0  0  0  0  0  0
    6.6654    0.0688   -0.0016 C   0  0  0  0  0  0  0  0  0  0  0  0
    5.6713   -0.5750    0.7330 C   0  0  0  0  0  0  0  0  0  0  0  0
    4.3470   -0.3764    0.5238 N   0  0  0  0  0  0  0  0  0  0  0  0
    4.0541    0.5120   -0.4719 C   0  0  0  0  0  0  0  0  0  0  0  0
    2.6112    0.7708   -0.7474 C   0  0  0  0  0  0  0  0  0  0  0  0
    2.2944    1.5591   -1.6296 O   0  0  0  0  0  0  0  0  0  0  0  0
    1.7690    0.0469    0.0755 N   0  0  0  0  0  0  0  0  0  0  0  0
    0.3644    0.0425    0.0960 C   0  0  0  0  0  0  0  0  0  0  0  0
   -0.2633   -0.7798    1.0307 C   0  0  0  0  0  0  0  0  0  0  0  0
   -1.6630   -0.8365    1.1095 C   0  0  0  0  0  0  0  0  0  0  0  0
   -2.4877   -0.0796    0.2652 C   0  0  0  0  0  0  0  0  0  0  0  0
   -3.8663   -0.1354    0.3480 N   0  0  0  0  0  0  0  0  0  0  0  0
   -4.7284    0.9063   -0.2331 C   0  0  0  0  0  0  0  0  0  0  0  0
   -6.0764    0.9474    0.5070 C   0  0  0  0  0  0  0  0  0  0  0  0
   -6.8060   -0.2874    0.4683 O   0  0  0  0  0  0  0  0  0  0  0  0
   -5.9612   -1.4400    0.3466 C   0  0  0  0  0  0  0  0  0  0  0  0
   -4.5679   -1.2666    0.9754 C   0  0  0  0  0  0  0  0  0  0  0  0
   -1.8303    0.7401   -0.6642 C   0  0  0  0  0  0  0  0  0  0  0  0
   -0.4300    0.8032   -0.7530 C   0  0  0  0  0  0  0  0  0  0  0  0
    5.0345    1.1573   -1.2080 C   0  0  0  0  0  0  0  0  0  0  0  0
    6.3585    0.9487   -0.9877 N   0  0  0  0  0  0  0  0  0  0  0  0
    8.7507    0.3931   -0.3885 H   0  0  0  0  0  0  0  0  0  0  0  0
    8.3405   -1.2532    0.1249 H   0  0  0  0  0  0  0  0  0  0  0  0
    8.3531    0.0799    1.3104 H   0  0  0  0  0  0  0  0  0  0  0  0
    5.9195   -1.2786    1.5216 H   0  0  0  0  0  0  0  0  0  0  0  0
    2.2507   -0.5511    0.7437 H   0  0  0  0  0  0  0  0  0  0  0  0
    0.3195   -1.3868    1.7181 H   0  0  0  0  0  0  0  0  0  0  0  0
   -2.0951   -1.4764    1.8735 H   0  0  0  0  0  0  0  0  0  0  0  0
   -4.8915    0.6836   -1.2940 H   0  0  0  0  0  0  0  0  0  0  0  0
   -4.2679    1.8969   -0.1455 H   0  0  0  0  0  0  0  0  0  0  0  0
   -5.9207    1.2041    1.5616 H   0  0  0  0  0  0  0  0  0  0  0  0
   -6.7188    1.7215    0.0753 H   0  0  0  0  0  0  0  0  0  0  0  0
   -5.8685   -1.6703   -0.7215 H   0  0  0  0  0  0  0  0  0  0  0  0
   -6.4830   -2.2801    0.8159 H   0  0  0  0  0  0  0  0  0  0  0  0
   -4.6650   -1.0714    2.0496 H   0  0  0  0  0  0  0  0  0  0  0  0
   -4.0186   -2.2045    0.8346 H   0  0  0  0  0  0  0  0  0  0  0  0
   -2.3967    1.3424   -1.3691 H   0  0  0  0  0  0  0  0  0  0  0  0
    0.0008    1.4577   -1.5038 H   0  0  0  0  0  0  0  0  0  0  0  0
    4.7900    1.8610   -1.9967 H   0  0  0  0  0  0  0  0  0  0  0  0
  1  2  1  0
  2  3  2  0
  3  4  1  0
  4  5  2  0
  5  6  1  0
  6  7  2  0
  6  8  1  0
  8  9  1  0
  9 10  2  0
 10 11  1  0
 11 12  2  0
 12 13  1  0
 13 14  1  0
 14 15  1  0
 15 16  1  0
 16 17  1  0
 17 18  1  0
 12 19  1  0
 19 20  2  0
  5 21  1  0
 21 22  2  0
 22  2  1  0
 20  9  1  0
 18 13  1  0
  1 23  1  0
  1 24  1  0
  1 25  1  0
  3 26  1  0
  8 27  1  0
 10 28  1  0
 11 29  1  0
 14 30  1  0
 14 31  1  0
 15 32  1  0
 15 33  1  0
 17 34  1  0
 17 35  1  0
 18 36  1  0
 18 37  1  0
 19 38  1  0
 20 39  1  0
 21 40  1  0
M  END
