
     RDKit          3D

 26 27  0  0  0  0  0  0  0  0999 V2000
    5.3117   -0.0741    0.5231 C   0  0  0  0  0  0  0  0  0  0  0  0
    3.9393   -0.4417    0.0948 C   0  0  0  0  0  0  0  0  0  0  0  0
    3.4725   -1.6132   -0.4635 C   0  0  0  0  0  0  0  0  0  0  0  0
    2.1218   -1.6392   -0.7531 N   0  0  0  0  0  0  0  0  0  0  0  0
    1.5782   -0.4943   -0.4100 C   0  0  0  0  0  0  0  0  0  0  0  0
    0.2449   -0.2598   -0.5987 N   0  0  0  0  0  0  0  0  0  0  0  0
   -0.4801    0.8528   -0.2346 C   0  0  0  0  0  0  0  0  0  0  0  0
   -0.0673    1.8666    0.3187 O   0  0  0  0  0  0  0  0  0  0  0  0
   -1.9490    0.7182   -0.6702 C   0  0  0  0  0  0  0  0  0  0  0  0
   -2.9095    1.3783    0.3068 C   0  0  0  0  0  0  0  0  0  0  0  0
   -4.1452    0.5255    0.1730 C   0  0  0  0  0  0  0  0  0  0  0  0
   -3.5514   -0.8490   -0.0275 C   0  0  0  0  0  0  0  0  0  0  0  0
   -2.3526   -0.6607   -0.7925 O   0  0  0  0  0  0  0  0  0  0  0  0
    2.6372    0.6599    0.2590 S   0  0  0  0  0  0  0  0  0  0  0  0
    6.0108   -0.8977    0.3442 H   0  0  0  0  0  0  0  0  0  0  0  0
    5.6726    0.7976   -0.0327 H   0  0  0  0  0  0  0  0  0  0  0  0
    5.3364    0.1594    1.5925 H   0  0  0  0  0  0  0  0  0  0  0  0
    4.0753   -2.4862   -0.6836 H   0  0  0  0  0  0  0  0  0  0  0  0
   -0.2720   -1.0411   -0.9884 H   0  0  0  0  0  0  0  0  0  0  0  0
   -2.0407    1.1683   -1.6658 H   0  0  0  0  0  0  0  0  0  0  0  0
   -2.5291    1.3233    1.3343 H   0  0  0  0  0  0  0  0  0  0  0  0
   -3.0868    2.4326    0.0749 H   0  0  0  0  0  0  0  0  0  0  0  0
   -4.7057    0.8258   -0.7201 H   0  0  0  0  0  0  0  0  0  0  0  0
   -4.8138    0.5822    1.0357 H   0  0  0  0  0  0  0  0  0  0  0  0
   -4.2248   -1.5272   -0.5585 H   0  0  0  0  0  0  0  0  0  0  0  0
   -3.2727   -1.3064    0.9280 H   0  0  0  0  0  0  0  0  0  0  0  0
  1  2  1  0
  2  3  2  0
  3  4  1  0
  4  5  2  0
  5  6  1  0
  6  7  1  0
  7  8  2  0
  7  9  1  0
  9 10  1  0
 10 11  1  0
 11 12  1  0
 12 13  1  0
  5 14  1  0
 14  2  1  0
 13  9  1  0
  1 15  1  0
  1 16  1  0
  1 17  1  0
  3 18  1  0
  6 19  1  0
  9 20  1  0
 10 21  1  0
 10 22  1  0
 11 23  1  0
 11 24  1  0
 12 25  1  0
 12 26  1  0
M  END
