
     RDKit          3D

 36 39  0  0  0  0  0  0  0  0999 V2000
    6.6640    1.0531    0.7822 C   0  0  0  0  0  0  0  0  0  0  0  0
    5.5786    0.4571   -0.0476 C   0  0  0  0  0  0  0  0  0  0  0  0
    5.7378   -0.0382   -1.3245 C   0  0  0  0  0  0  0  0  0  0  0  0
    4.2866   -0.6491   -1.9796 S   0  0  0  0  0  0  0  0  0  0  0  0
    3.3891   -0.2710   -0.5621 C   0  0  0  0  0  0  0  0  0  0  0  0
    1.9713   -0.5605   -0.4556 C   0  0  0  0  0  0  0  0  0  0  0  0
    1.1323   -1.0944   -1.4181 C   0  0  0  0  0  0  0  0  0  0  0  0
   -0.2273   -1.2588   -0.9816 C   0  0  0  0  0  0  0  0  0  0  0  0
   -1.3049   -1.8216   -1.8504 C   0  0  0  0  0  0  0  0  0  0  0  0
   -0.3776   -0.8280    0.3255 C   0  0  0  0  0  0  0  0  0  0  0  0
   -1.5794   -0.8075    1.1115 C   0  0  0  0  0  0  0  0  0  0  0  0
   -1.7664   -1.8075    2.5166 S   0  0  0  0  0  0  0  0  0  0  0  0
   -3.3629   -1.2280    2.8359 C   0  0  0  0  0  0  0  0  0  0  0  0
   -3.7124   -0.3097    1.8897 C   0  0  0  0  0  0  0  0  0  0  0  0
   -2.7192   -0.0763    0.9217 C   0  0  0  0  0  0  0  0  0  0  0  0
   -3.2159    0.9045   -0.0085 C   0  0  0  0  0  0  0  0  0  0  0  0
   -2.6484    1.3359   -0.9972 O   0  0  0  0  0  0  0  0  0  0  0  0
   -4.4815    1.2241    0.4622 N   0  0  0  0  0  0  0  0  0  0  0  0
   -5.3480    2.1586   -0.2075 C   0  0  0  0  0  0  0  0  0  0  0  0
   -4.8533    0.5149    1.5920 C   0  0  0  0  0  0  0  0  0  0  0  0
   -5.9030    0.5488    2.2097 O   0  0  0  0  0  0  0  0  0  0  0  0
    1.0914   -0.2541    0.9850 S   0  0  0  0  0  0  0  0  0  0  0  0
    4.2172    0.3145    0.3825 C   0  0  0  0  0  0  0  0  0  0  0  0
    7.5379    1.3063    0.1730 H   0  0  0  0  0  0  0  0  0  0  0  0
    6.9784    0.3459    1.5564 H   0  0  0  0  0  0  0  0  0  0  0  0
    6.3166    1.9697    1.2699 H   0  0  0  0  0  0  0  0  0  0  0  0
    6.6452   -0.0714   -1.9123 H   0  0  0  0  0  0  0  0  0  0  0  0
    1.4665   -1.3650   -2.4131 H   0  0  0  0  0  0  0  0  0  0  0  0
   -1.9749   -2.4724   -1.2797 H   0  0  0  0  0  0  0  0  0  0  0  0
   -0.8793   -2.4194   -2.6633 H   0  0  0  0  0  0  0  0  0  0  0  0
   -1.8947   -1.0153   -2.2964 H   0  0  0  0  0  0  0  0  0  0  0  0
   -3.9325   -1.5896    3.6816 H   0  0  0  0  0  0  0  0  0  0  0  0
   -6.1332    2.5095    0.4672 H   0  0  0  0  0  0  0  0  0  0  0  0
   -4.7634    3.0057   -0.5774 H   0  0  0  0  0  0  0  0  0  0  0  0
   -5.8063    1.6508   -1.0614 H   0  0  0  0  0  0  0  0  0  0  0  0
    3.8716    0.6381    1.3575 H   0  0  0  0  0  0  0  0  0  0  0  0
  1  2  1  0
  2  3  2  0
  3  4  1  0
  4  5  1  0
  5  6  1  0
  6  7  2  0
  7  8  1  0
  8  9  1  0
  8 10  2  0
 10 11  1  0
 11 12  1  0
 12 13  1  0
 13 14  2  0
 14 15  1  0
 15 16  1  0
 16 17  2  0
 16 18  1  0
 18 19  1  0
 18 20  1  0
 20 21  2  0
 10 22  1  0
  5 23  2  0
 23  2  1  0
 22  6  1  0
 15 11  2  0
 20 14  1  0
  1 24  1  0
  1 25  1  0
  1 26  1  0
  3 27  1  0
  7 28  1  0
  9 29  1  0
  9 30  1  0
  9 31  1  0
 13 32  1  0
 19 33  1  0
 19 34  1  0
 19 35  1  0
 23 36  1  0
M  END
