
     RDKit          3D

 40 45  0  0  0  0  0  0  0  0999 V2000
   -7.7172    0.1445    0.6813 C   0  0  0  0  0  0  0  0  0  0  0  0
   -6.4126   -0.3842    0.1914 C   0  0  0  0  0  0  0  0  0  0  0  0
   -6.2501   -1.5597   -0.5130 C   0  0  0  0  0  0  0  0  0  0  0  0
   -4.6227   -1.8596   -0.9313 S   0  0  0  0  0  0  0  0  0  0  0  0
   -4.0849   -0.4162   -0.1739 C   0  0  0  0  0  0  0  0  0  0  0  0
   -2.6646   -0.0659   -0.1900 C   0  0  0  0  0  0  0  0  0  0  0  0
   -1.6356   -0.9896    0.0932 C   0  0  0  0  0  0  0  0  0  0  0  0
   -0.2466   -0.6541    0.0828 C   0  0  0  0  0  0  0  0  0  0  0  0
    0.7701   -1.6267    0.3740 C   0  0  0  0  0  0  0  0  0  0  0  0
    0.5564   -2.9193    0.6807 N   0  0  0  0  0  0  0  0  0  0  0  0
    2.0389   -3.6093    0.9338 S   0  0  0  0  0  0  0  0  0  0  0  0
    3.0301   -2.3145    0.6612 N   0  0  0  0  0  0  0  0  0  0  0  0
    2.2454   -1.2630    0.3603 C   0  0  0  0  0  0  0  0  0  0  0  0
    2.6649    0.0664    0.0600 C   0  0  0  0  0  0  0  0  0  0  0  0
    4.0852    0.4168    0.0442 C   0  0  0  0  0  0  0  0  0  0  0  0
    5.1519   -0.2705   -0.5069 C   0  0  0  0  0  0  0  0  0  0  0  0
    6.4131    0.3847   -0.3201 C   0  0  0  0  0  0  0  0  0  0  0  0
    7.7164   -0.1460   -0.8116 C   0  0  0  0  0  0  0  0  0  0  0  0
    6.2504    1.5604    0.3837 C   0  0  0  0  0  0  0  0  0  0  0  0
    4.6229    1.8602    0.8017 S   0  0  0  0  0  0  0  0  0  0  0  0
    1.6359    0.9901   -0.2232 C   0  0  0  0  0  0  0  0  0  0  0  0
    0.2470    0.6546   -0.2129 C   0  0  0  0  0  0  0  0  0  0  0  0
   -0.7698    1.6272   -0.5040 C   0  0  0  0  0  0  0  0  0  0  0  0
   -0.5561    2.9199   -0.8105 N   0  0  0  0  0  0  0  0  0  0  0  0
   -2.0385    3.6098   -1.0637 S   0  0  0  0  0  0  0  0  0  0  0  0
   -3.0297    2.3150   -0.7911 N   0  0  0  0  0  0  0  0  0  0  0  0
   -2.2450    1.2635   -0.4903 C   0  0  0  0  0  0  0  0  0  0  0  0
   -5.1514    0.2711    0.3775 C   0  0  0  0  0  0  0  0  0  0  0  0
   -8.4423   -0.6633    0.8249 H   0  0  0  0  0  0  0  0  0  0  0  0
   -8.1308    0.8553   -0.0413 H   0  0  0  0  0  0  0  0  0  0  0  0
   -7.5931    0.6586    1.6401 H   0  0  0  0  0  0  0  0  0  0  0  0
   -7.0162   -2.2637   -0.8088 H   0  0  0  0  0  0  0  0  0  0  0  0
   -1.9125   -2.0164    0.3434 H   0  0  0  0  0  0  0  0  0  0  0  0
    5.0380   -1.2148   -1.0278 H   0  0  0  0  0  0  0  0  0  0  0  0
    7.6169   -0.5270   -1.8333 H   0  0  0  0  0  0  0  0  0  0  0  0
    8.4869    0.6320   -0.8160 H   0  0  0  0  0  0  0  0  0  0  0  0
    8.0573   -0.9637   -0.1684 H   0  0  0  0  0  0  0  0  0  0  0  0
    7.0161    2.2649    0.6794 H   0  0  0  0  0  0  0  0  0  0  0  0
    1.9129    2.0169   -0.4734 H   0  0  0  0  0  0  0  0  0  0  0  0
   -5.0371    1.2156    0.8981 H   0  0  0  0  0  0  0  0  0  0  0  0
  1  2  1  0
  2  3  2  0
  3  4  1  0
  4  5  1  0
  5  6  1  0
  6  7  2  0
  7  8  1  0
  8  9  1  0
  9 10  2  0
 10 11  1  0
 11 12  1  0
 12 13  2  0
 13 14  1  0
 14 15  1  0
 15 16  2  0
 16 17  1  0
 17 18  1  0
 17 19  2  0
 19 20  1  0
 14 21  2  0
 21 22  1  0
 22 23  1  0
 23 24  2  0
 24 25  1  0
 25 26  1  0
 26 27  2  0
  5 28  2  0
 28  2  1  0
 27  6  1  0
 22  8  2  0
 27 23  1  0
 13  9  1  0
 20 15  1  0
  1 29  1  0
  1 30  1  0
  1 31  1  0
  3 32  1  0
  7 33  1  0
 16 34  1  0
 18 35  1  0
 18 36  1  0
 18 37  1  0
 19 38  1  0
 21 39  1  0
 28 40  1  0
M  END
