
     RDKit          3D

 49 54  0  0  0  0  0  0  0  0999 V2000
   10.7674   -0.2949    0.6821 C   0  0  0  0  0  0  0  0  0  0  0  0
    9.4407    0.2828    1.0415 C   0  0  0  0  0  0  0  0  0  0  0  0
    9.2391    1.3138    1.9358 C   0  0  0  0  0  0  0  0  0  0  0  0
    7.5920    1.7270    2.1078 S   0  0  0  0  0  0  0  0  0  0  0  0
    7.0933    0.5298    0.9829 C   0  0  0  0  0  0  0  0  0  0  0  0
    5.6815    0.3467    0.6518 C   0  0  0  0  0  0  0  0  0  0  0  0
    4.7498    1.1283    1.2325 N   0  0  0  0  0  0  0  0  0  0  0  0
    3.4391    0.9360    0.9038 N   0  0  0  0  0  0  0  0  0  0  0  0
    3.1328   -0.0269    0.0122 C   0  0  0  0  0  0  0  0  0  0  0  0
    1.7383   -0.2589   -0.3582 C   0  0  0  0  0  0  0  0  0  0  0  0
    1.2246   -1.1893   -1.2456 C   0  0  0  0  0  0  0  0  0  0  0  0
   -0.2047   -1.1406   -1.3714 C   0  0  0  0  0  0  0  0  0  0  0  0
   -0.9869   -2.0375   -2.2760 C   0  0  0  0  0  0  0  0  0  0  0  0
   -0.7371   -0.1537   -0.5565 C   0  0  0  0  0  0  0  0  0  0  0  0
   -2.1278    0.1836   -0.3867 C   0  0  0  0  0  0  0  0  0  0  0  0
   -3.1338   -0.6579    0.0740 C   0  0  0  0  0  0  0  0  0  0  0  0
   -4.3524    0.0273    0.0832 C   0  0  0  0  0  0  0  0  0  0  0  0
   -4.2911    1.3330   -0.3572 C   0  0  0  0  0  0  0  0  0  0  0  0
   -2.7244    1.7606   -0.7961 S   0  0  0  0  0  0  0  0  0  0  0  0
   -5.5186    2.0711   -0.3651 C   0  0  0  0  0  0  0  0  0  0  0  0
   -5.8718    3.6534   -0.8199 S   0  0  0  0  0  0  0  0  0  0  0  0
   -7.5449    3.4321   -0.4251 C   0  0  0  0  0  0  0  0  0  0  0  0
   -7.8259    2.1609    0.0495 C   0  0  0  0  0  0  0  0  0  0  0  0
   -6.6482    1.4082    0.0710 C   0  0  0  0  0  0  0  0  0  0  0  0
   -6.1617   -0.3789    0.5691 Si  0  0  0  0  0  4  0  0  0  0  0  0
   -6.9225   -1.6604   -0.5175 C   0  0  0  0  0  0  0  0  0  0  0  0
   -6.3638   -0.7018    2.3736 C   0  0  0  0  0  0  0  0  0  0  0  0
    0.4741    0.6734    0.3244 S   0  0  0  0  0  0  0  0  0  0  0  0
    4.0655   -0.8113   -0.5687 N   0  0  0  0  0  0  0  0  0  0  0  0
    5.3750   -0.6193   -0.2402 N   0  0  0  0  0  0  0  0  0  0  0  0
    8.1917   -0.1629    0.4971 C   0  0  0  0  0  0  0  0  0  0  0  0
   10.7809   -1.3712    0.8819 H   0  0  0  0  0  0  0  0  0  0  0  0
   11.5750    0.1675    1.2587 H   0  0  0  0  0  0  0  0  0  0  0  0
   10.9743   -0.1366   -0.3813 H   0  0  0  0  0  0  0  0  0  0  0  0
    9.9859    1.8523    2.5038 H   0  0  0  0  0  0  0  0  0  0  0  0
    1.8529   -1.8844   -1.7932 H   0  0  0  0  0  0  0  0  0  0  0  0
   -1.6861   -1.4589   -2.8886 H   0  0  0  0  0  0  0  0  0  0  0  0
   -1.5532   -2.7689   -1.6903 H   0  0  0  0  0  0  0  0  0  0  0  0
   -0.3263   -2.5872   -2.9547 H   0  0  0  0  0  0  0  0  0  0  0  0
   -2.9668   -1.6826    0.3826 H   0  0  0  0  0  0  0  0  0  0  0  0
   -8.2322    4.2553   -0.5641 H   0  0  0  0  0  0  0  0  0  0  0  0
   -8.8145    1.8353    0.3481 H   0  0  0  0  0  0  0  0  0  0  0  0
   -7.9992   -1.7422   -0.3388 H   0  0  0  0  0  0  0  0  0  0  0  0
   -6.4809   -2.6452   -0.3362 H   0  0  0  0  0  0  0  0  0  0  0  0
   -6.7794   -1.4233   -1.5765 H   0  0  0  0  0  0  0  0  0  0  0  0
   -7.4214   -0.7463    2.6515 H   0  0  0  0  0  0  0  0  0  0  0  0
   -5.8961    0.0831    2.9764 H   0  0  0  0  0  0  0  0  0  0  0  0
   -5.9064   -1.6545    2.6584 H   0  0  0  0  0  0  0  0  0  0  0  0
    8.1045   -0.9659   -0.2278 H   0  0  0  0  0  0  0  0  0  0  0  0
  1  2  1  0
  2  3  2  0
  3  4  1  0
  4  5  1  0
  5  6  1  0
  6  7  2  0
  7  8  1  0
  8  9  2  0
  9 10  1  0
 10 11  2  0
 11 12  1  0
 12 13  1  0
 12 14  2  0
 14 15  1  0
 15 16  2  0
 16 17  1  0
 17 18  2  0
 18 19  1  0
 18 20  1  0
 20 21  1  0
 21 22  1  0
 22 23  2  0
 23 24  1  0
 24 25  1  0
 25 26  1  0
 25 27  1  0
 14 28  1  0
  9 29  1  0
 29 30  2  0
  5 31  2  0
 31  2  1  0
 30  6  1  0
 28 10  1  0
 19 15  1  0
 24 20  2  0
 25 17  1  0
  1 32  1  0
  1 33  1  0
  1 34  1  0
  3 35  1  0
 11 36  1  0
 13 37  1  0
 13 38  1  0
 13 39  1  0
 16 40  1  0
 22 41  1  0
 23 42  1  0
 26 43  1  0
 26 44  1  0
 26 45  1  0
 27 46  1  0
 27 47  1  0
 27 48  1  0
 31 49  1  0
M  END
