
     RDKit          3D

 24 26  0  0  0  0  0  0  0  0999 V2000
   -4.4640    1.3661   -0.1815 C   0  0  0  0  0  0  0  0  0  0  0  0
   -3.3903    0.3369   -0.2055 C   0  0  0  0  0  0  0  0  0  0  0  0
   -2.1074    0.5976   -0.0813 N   0  0  0  0  0  0  0  0  0  0  0  0
   -1.3674   -0.5762   -0.1379 C   0  0  0  0  0  0  0  0  0  0  0  0
    0.0905   -0.5484   -0.0264 C   0  0  0  0  0  0  0  0  0  0  0  0
    0.8398   -1.7045    0.2985 C   0  0  0  0  0  0  0  0  0  0  0  0
    2.2364   -1.6589    0.4011 C   0  0  0  0  0  0  0  0  0  0  0  0
    2.8567   -0.4504    0.1789 C   0  0  0  0  0  0  0  0  0  0  0  0
    2.1420    0.6810   -0.1309 C   0  0  0  0  0  0  0  0  0  0  0  0
    0.7667    0.6658   -0.2380 C   0  0  0  0  0  0  0  0  0  0  0  0
    2.9419    1.7666   -0.3086 O   0  0  0  0  0  0  0  0  0  0  0  0
    4.2415    1.1883   -0.0709 C   0  0  0  0  0  0  0  0  0  0  0  0
    4.1953   -0.2209    0.2364 O   0  0  0  0  0  0  0  0  0  0  0  0
   -2.1236   -1.7178   -0.3244 C   0  0  0  0  0  0  0  0  0  0  0  0
   -3.7901   -1.3201   -0.4093 S   0  0  0  0  0  0  0  0  0  0  0  0
   -5.0232    1.3676   -1.1225 H   0  0  0  0  0  0  0  0  0  0  0  0
   -4.0344    2.3636   -0.0437 H   0  0  0  0  0  0  0  0  0  0  0  0
   -5.1608    1.1829    0.6425 H   0  0  0  0  0  0  0  0  0  0  0  0
    0.3463   -2.6538    0.4901 H   0  0  0  0  0  0  0  0  0  0  0  0
    2.8113   -2.5432    0.6519 H   0  0  0  0  0  0  0  0  0  0  0  0
    0.2279    1.5763   -0.4819 H   0  0  0  0  0  0  0  0  0  0  0  0
    4.7117    1.7146    0.7679 H   0  0  0  0  0  0  0  0  0  0  0  0
    4.8581    1.3317   -0.9657 H   0  0  0  0  0  0  0  0  0  0  0  0
   -1.8050   -2.7446   -0.4229 H   0  0  0  0  0  0  0  0  0  0  0  0
  1  2  1  0
  2  3  2  0
  3  4  1  0
  4  5  1  0
  5  6  2  0
  6  7  1  0
  7  8  2  0
  8  9  1  0
  9 10  2  0
  9 11  1  0
 11 12  1  0
 12 13  1  0
  4 14  2  0
 14 15  1  0
 15  2  1  0
 10  5  1  0
 13  8  1  0
  1 16  1  0
  1 17  1  0
  1 18  1  0
  6 19  1  0
  7 20  1  0
 10 21  1  0
 12 22  1  0
 12 23  1  0
 14 24  1  0
M  END
