
     RDKit          3D

 33 35  0  0  0  0  0  0  0  0999 V2000
   -0.8734   -2.2720   -1.0681 C   0  0  0  0  0  0  0  0  0  0  0  0
   -1.0522   -0.8917   -0.5175 C   0  0  0  0  0  0  0  0  0  0  0  0
    0.0557   -0.2247   -0.1286 N   0  0  0  0  0  0  0  0  0  0  0  0
   -0.1449    1.0307    0.3531 C   0  0  0  0  0  0  0  0  0  0  0  0
    1.3220    1.9165    0.8722 S   0  0  0  0  0  6  0  0  0  0  0  0
    1.2601    2.1054    2.3142 O   0  0  0  0  0  0  0  0  0  0  0  0
    1.5035    3.0581   -0.0132 O   0  0  0  0  0  0  0  0  0  0  0  0
    2.7198    0.8402    0.5832 C   0  0  0  0  0  0  0  0  0  0  0  0
    3.4702    0.9746   -0.5906 C   0  0  0  0  0  0  0  0  0  0  0  0
    4.5721    0.1450   -0.7994 C   0  0  0  0  0  0  0  0  0  0  0  0
    4.9230   -0.8039    0.1633 C   0  0  0  0  0  0  0  0  0  0  0  0
    4.1755   -0.9182    1.3368 C   0  0  0  0  0  0  0  0  0  0  0  0
    4.6197   -2.0880    2.5180 Cl  0  0  0  0  0  0  0  0  0  0  0  0
    3.0749   -0.0955    1.5600 C   0  0  0  0  0  0  0  0  0  0  0  0
   -1.3120    1.6955    0.4887 N   0  0  0  0  0  0  0  0  0  0  0  0
   -2.3640    0.9752    0.0965 C   0  0  0  0  0  0  0  0  0  0  0  0
   -2.2950   -0.3135   -0.4070 C   0  0  0  0  0  0  0  0  0  0  0  0
   -3.6451   -0.8167   -0.7895 C   0  0  0  0  0  0  0  0  0  0  0  0
   -4.5538    0.1558   -0.0209 C   0  0  0  0  0  0  0  0  0  0  0  0
   -3.7807    1.4763    0.0982 C   0  0  0  0  0  0  0  0  0  0  0  0
   -1.3995   -3.0008   -0.4441 H   0  0  0  0  0  0  0  0  0  0  0  0
    0.1862   -2.5469   -1.0907 H   0  0  0  0  0  0  0  0  0  0  0  0
   -1.2596   -2.3264   -2.0906 H   0  0  0  0  0  0  0  0  0  0  0  0
    3.2071    1.7179   -1.3408 H   0  0  0  0  0  0  0  0  0  0  0  0
    5.1606    0.2397   -1.7093 H   0  0  0  0  0  0  0  0  0  0  0  0
    5.7833   -1.4472   -0.0043 H   0  0  0  0  0  0  0  0  0  0  0  0
    2.5029   -0.1837    2.4804 H   0  0  0  0  0  0  0  0  0  0  0  0
   -3.7920   -0.7227   -1.8703 H   0  0  0  0  0  0  0  0  0  0  0  0
   -3.8175   -1.8499   -0.4758 H   0  0  0  0  0  0  0  0  0  0  0  0
   -5.5295    0.2838   -0.4997 H   0  0  0  0  0  0  0  0  0  0  0  0
   -4.7382   -0.2446    0.9859 H   0  0  0  0  0  0  0  0  0  0  0  0
   -4.0296    2.0154    1.0158 H   0  0  0  0  0  0  0  0  0  0  0  0
   -3.9494    2.1163   -0.7735 H   0  0  0  0  0  0  0  0  0  0  0  0
  1  2  1  0
  2  3  2  0
  3  4  1  0
  4  5  1  0
  5  6  2  0
  5  7  2  0
  5  8  1  0
  8  9  2  0
  9 10  1  0
 10 11  2  0
 11 12  1  0
 12 13  1  0
 12 14  2  0
  4 15  2  0
 15 16  1  0
 16 17  2  0
 17 18  1  0
 18 19  1  0
 19 20  1  0
 17  2  1  0
 14  8  1  0
 20 16  1  0
  1 21  1  0
  1 22  1  0
  1 23  1  0
  9 24  1  0
 10 25  1  0
 11 26  1  0
 14 27  1  0
 18 28  1  0
 18 29  1  0
 19 30  1  0
 19 31  1  0
 20 32  1  0
 20 33  1  0
M  END
