
     RDKit          3D

 43 45  0  0  0  0  0  0  0  0999 V2000
   -3.1394    2.9914   -1.3160 C   0  0  0  0  0  0  0  0  0  0  0  0
   -3.3405    1.7159   -0.5536 C   0  0  0  0  0  0  0  0  0  0  0  0
   -4.6221    1.2619   -0.4879 N   0  0  0  0  0  0  0  0  0  0  0  0
   -4.8369    0.1202    0.1889 C   0  0  0  0  0  0  0  0  0  0  0  0
   -6.1264   -0.3878    0.2906 C   0  0  0  0  0  0  0  0  0  0  0  0
   -6.3885   -1.5699    0.9843 C   0  0  0  0  0  0  0  0  0  0  0  0
   -5.3423   -2.2559    1.5867 C   0  0  0  0  0  0  0  0  0  0  0  0
   -4.0436   -1.7536    1.4896 C   0  0  0  0  0  0  0  0  0  0  0  0
   -3.7713   -0.5772    0.8013 C   0  0  0  0  0  0  0  0  0  0  0  0
   -2.5041   -0.1277    0.7315 N   0  0  0  0  0  0  0  0  0  0  0  0
   -2.2877    1.0273    0.0568 C   0  0  0  0  0  0  0  0  0  0  0  0
   -0.5976    1.5930   -0.0398 S   0  0  0  0  0  0  0  0  0  0  0  0
    0.1535    0.5966    1.2888 C   0  0  0  0  0  0  0  0  0  0  0  0
    1.6211    0.9687    1.4384 C   0  0  0  0  0  0  0  0  0  0  0  0
    1.9625    1.7347    2.3456 O   0  0  0  0  0  0  0  0  0  0  0  0
    2.5484    0.4368    0.5359 N   0  0  0  0  0  0  0  0  0  0  0  0
    3.9611    0.6983    0.8109 C   0  0  0  0  0  0  0  0  0  0  0  0
    4.8133    0.7138   -0.4551 C   0  0  0  0  0  0  0  0  0  0  0  0
    4.6034   -0.5280   -1.3279 C   0  0  0  0  0  0  0  0  0  0  0  0
    5.2256   -1.7798   -0.7066 C   0  0  0  0  0  0  0  0  0  0  0  0
    3.1067   -0.7058   -1.6033 C   0  0  0  0  0  0  0  0  0  0  0  0
    2.2616   -0.7078   -0.3312 C   0  0  0  0  0  0  0  0  0  0  0  0
   -4.0938    3.3642   -1.7033 H   0  0  0  0  0  0  0  0  0  0  0  0
   -2.7213    3.7671   -0.6670 H   0  0  0  0  0  0  0  0  0  0  0  0
   -2.4769    2.8291   -2.1718 H   0  0  0  0  0  0  0  0  0  0  0  0
   -6.9435    0.1523   -0.1818 H   0  0  0  0  0  0  0  0  0  0  0  0
   -7.4056   -1.9480    1.0515 H   0  0  0  0  0  0  0  0  0  0  0  0
   -5.5314   -3.1777    2.1313 H   0  0  0  0  0  0  0  0  0  0  0  0
   -3.2246   -2.2903    1.9622 H   0  0  0  0  0  0  0  0  0  0  0  0
   -0.3463    0.8260    2.2370 H   0  0  0  0  0  0  0  0  0  0  0  0
    0.0464   -0.4781    1.1207 H   0  0  0  0  0  0  0  0  0  0  0  0
    4.0778    1.6599    1.3230 H   0  0  0  0  0  0  0  0  0  0  0  0
    4.3069   -0.0758    1.5058 H   0  0  0  0  0  0  0  0  0  0  0  0
    5.8712    0.8212   -0.1885 H   0  0  0  0  0  0  0  0  0  0  0  0
    4.5461    1.6013   -1.0440 H   0  0  0  0  0  0  0  0  0  0  0  0
    5.1092   -0.3596   -2.2875 H   0  0  0  0  0  0  0  0  0  0  0  0
    4.7814   -2.0333    0.2603 H   0  0  0  0  0  0  0  0  0  0  0  0
    6.3008   -1.6380   -0.5533 H   0  0  0  0  0  0  0  0  0  0  0  0
    5.0957   -2.6418   -1.3696 H   0  0  0  0  0  0  0  0  0  0  0  0
    2.7713    0.1227   -2.2413 H   0  0  0  0  0  0  0  0  0  0  0  0
    2.9275   -1.6281   -2.1681 H   0  0  0  0  0  0  0  0  0  0  0  0
    1.2103   -0.7243   -0.6245 H   0  0  0  0  0  0  0  0  0  0  0  0
    2.4420   -1.6140    0.2583 H   0  0  0  0  0  0  0  0  0  0  0  0
  1  2  1  0
  2  3  2  0
  3  4  1  0
  4  5  2  0
  5  6  1  0
  6  7  2  0
  7  8  1  0
  8  9  2  0
  9 10  1  0
 10 11  2  0
 11 12  1  0
 12 13  1  0
 13 14  1  0
 14 15  2  0
 14 16  1  0
 16 17  1  0
 17 18  1  0
 18 19  1  0
 19 20  1  0
 19 21  1  0
 21 22  1  0
 11  2  1  0
 22 16  1  0
  9  4  1  0
  1 23  1  0
  1 24  1  0
  1 25  1  0
  5 26  1  0
  6 27  1  0
  7 28  1  0
  8 29  1  0
 13 30  1  0
 13 31  1  0
 17 32  1  0
 17 33  1  0
 18 34  1  0
 18 35  1  0
 19 36  1  0
 20 37  1  0
 20 38  1  0
 20 39  1  0
 21 40  1  0
 21 41  1  0
 22 42  1  0
 22 43  1  0
M  END
