
     RDKit          3D

 38 41  0  0  0  0  0  0  0  0999 V2000
    2.2703    2.6771   -0.8977 C   0  0  0  0  0  0  0  0  0  0  0  0
    2.9166    1.4356   -0.4048 C   0  0  0  0  0  0  0  0  0  0  0  0
    4.2787    1.3047   -0.5223 N   0  0  0  0  0  0  0  0  0  0  0  0
    4.5756    0.1653    0.0597 C   0  0  0  0  0  0  0  0  0  0  0  0
    5.8303   -0.4792    0.2549 C   0  0  0  0  0  0  0  0  0  0  0  0
    5.8842   -1.6636    0.8931 C   0  0  0  0  0  0  0  0  0  0  0  0
    4.6819   -2.3085    1.3925 C   0  0  0  0  0  0  0  0  0  0  0  0
    3.4948   -1.7058    1.2102 C   0  0  0  0  0  0  0  0  0  0  0  0
    3.4388   -0.4737    0.5502 N   0  0  0  0  0  0  0  0  0  0  0  0
    2.3558    0.3247    0.2175 C   0  0  0  0  0  0  0  0  0  0  0  0
    0.9779    0.0150    0.5302 C   0  0  0  0  0  0  0  0  0  0  0  0
    0.6648   -0.5608    1.5651 O   0  0  0  0  0  0  0  0  0  0  0  0
    0.0932    0.3895   -0.4656 N   0  0  0  0  0  0  0  0  0  0  0  0
   -1.3132    0.2803   -0.4643 C   0  0  0  0  0  0  0  0  0  0  0  0
   -1.9779    0.6497   -1.6435 C   0  0  0  0  0  0  0  0  0  0  0  0
   -3.3716    0.5871   -1.7296 C   0  0  0  0  0  0  0  0  0  0  0  0
   -4.1129    0.1602   -0.6337 C   0  0  0  0  0  0  0  0  0  0  0  0
   -3.4592   -0.2310    0.5374 C   0  0  0  0  0  0  0  0  0  0  0  0
   -2.0665   -0.1563    0.6280 C   0  0  0  0  0  0  0  0  0  0  0  0
   -4.1244   -0.6905    1.6470 O   0  0  0  0  0  0  0  0  0  0  0  0
   -5.4737   -1.0529    1.3346 C   0  0  0  0  0  0  0  0  0  0  0  0
   -6.1336    0.0226    0.4881 C   0  0  0  0  0  0  0  0  0  0  0  0
   -5.4759    0.1443   -0.7787 O   0  0  0  0  0  0  0  0  0  0  0  0
    1.4515    2.9836   -0.2397 H   0  0  0  0  0  0  0  0  0  0  0  0
    1.8747    2.5263   -1.9064 H   0  0  0  0  0  0  0  0  0  0  0  0
    2.9920    3.4995   -0.9355 H   0  0  0  0  0  0  0  0  0  0  0  0
    6.7242    0.0073   -0.1179 H   0  0  0  0  0  0  0  0  0  0  0  0
    6.8339   -2.1656    1.0514 H   0  0  0  0  0  0  0  0  0  0  0  0
    4.7671   -3.2619    1.9031 H   0  0  0  0  0  0  0  0  0  0  0  0
    2.5654   -2.1376    1.5608 H   0  0  0  0  0  0  0  0  0  0  0  0
    0.5068    0.7235   -1.3253 H   0  0  0  0  0  0  0  0  0  0  0  0
   -1.4231    0.9932   -2.5131 H   0  0  0  0  0  0  0  0  0  0  0  0
   -3.8766    0.8811   -2.6455 H   0  0  0  0  0  0  0  0  0  0  0  0
   -1.6043   -0.4508    1.5643 H   0  0  0  0  0  0  0  0  0  0  0  0
   -5.4649   -2.0214    0.8192 H   0  0  0  0  0  0  0  0  0  0  0  0
   -6.0120   -1.1742    2.2798 H   0  0  0  0  0  0  0  0  0  0  0  0
   -6.1094    0.9988    0.9883 H   0  0  0  0  0  0  0  0  0  0  0  0
   -7.1794   -0.2361    0.2950 H   0  0  0  0  0  0  0  0  0  0  0  0
  1  2  1  0
  2  3  1  0
  3  4  2  0
  4  5  1  0
  5  6  2  0
  6  7  1  0
  7  8  2  0
  8  9  1  0
  9 10  1  0
 10 11  1  0
 11 12  2  0
 11 13  1  0
 13 14  1  0
 14 15  2  0
 15 16  1  0
 16 17  2  0
 17 18  1  0
 18 19  2  0
 18 20  1  0
 20 21  1  0
 21 22  1  0
 22 23  1  0
 10  2  2  0
 19 14  1  0
  9  4  1  0
 23 17  1  0
  1 24  1  0
  1 25  1  0
  1 26  1  0
  5 27  1  0
  6 28  1  0
  7 29  1  0
  8 30  1  0
 13 31  1  0
 15 32  1  0
 16 33  1  0
 19 34  1  0
 21 35  1  0
 21 36  1  0
 22 37  1  0
 22 38  1  0
M  END
