
     RDKit          3D

 31 33  0  0  0  0  0  0  0  0999 V2000
    5.1838   -1.5361   -0.7568 C   0  0  0  0  0  0  0  0  0  0  0  0
    4.6604   -0.2447   -0.2621 C   0  0  0  0  0  0  0  0  0  0  0  0
    5.5093    0.7863    0.0787 N   0  0  0  0  0  0  0  0  0  0  0  0
    4.6990    1.7437    0.4634 C   0  0  0  0  0  0  0  0  0  0  0  0
    3.3739    1.4392    0.4085 O   0  0  0  0  0  0  0  0  0  0  0  0
    3.3492    0.1454   -0.0636 C   0  0  0  0  0  0  0  0  0  0  0  0
    2.0873   -0.5357   -0.2588 C   0  0  0  0  0  0  0  0  0  0  0  0
    2.0276   -1.6868   -0.6770 O   0  0  0  0  0  0  0  0  0  0  0  0
    0.9999    0.2532    0.0760 N   0  0  0  0  0  0  0  0  0  0  0  0
   -0.3689   -0.0716    0.0162 C   0  0  0  0  0  0  0  0  0  0  0  0
   -0.8628   -1.3051   -0.4170 C   0  0  0  0  0  0  0  0  0  0  0  0
   -2.2407   -1.5509   -0.4396 C   0  0  0  0  0  0  0  0  0  0  0  0
   -3.1323   -0.5663   -0.0269 C   0  0  0  0  0  0  0  0  0  0  0  0
   -2.6495    0.6782    0.3812 C   0  0  0  0  0  0  0  0  0  0  0  0
   -1.2754    0.9192    0.4168 C   0  0  0  0  0  0  0  0  0  0  0  0
   -3.4657    1.7106    0.7698 O   0  0  0  0  0  0  0  0  0  0  0  0
   -4.8232    1.4780    0.3746 C   0  0  0  0  0  0  0  0  0  0  0  0
   -5.2409    0.0531    0.6991 C   0  0  0  0  0  0  0  0  0  0  0  0
   -4.4649   -0.8850   -0.0549 O   0  0  0  0  0  0  0  0  0  0  0  0
    6.2774   -1.5241   -0.7990 H   0  0  0  0  0  0  0  0  0  0  0  0
    4.8083   -1.7433   -1.7636 H   0  0  0  0  0  0  0  0  0  0  0  0
    4.8795   -2.3533   -0.0954 H   0  0  0  0  0  0  0  0  0  0  0  0
    4.9562    2.7334    0.8143 H   0  0  0  0  0  0  0  0  0  0  0  0
    1.2334    1.1831    0.4071 H   0  0  0  0  0  0  0  0  0  0  0  0
   -0.2045   -2.1047   -0.7420 H   0  0  0  0  0  0  0  0  0  0  0  0
   -2.6120   -2.5172   -0.7704 H   0  0  0  0  0  0  0  0  0  0  0  0
   -0.9281    1.8927    0.7514 H   0  0  0  0  0  0  0  0  0  0  0  0
   -4.9146    1.6889   -0.6982 H   0  0  0  0  0  0  0  0  0  0  0  0
   -5.4528    2.1900    0.9173 H   0  0  0  0  0  0  0  0  0  0  0  0
   -5.1161   -0.1689    1.7663 H   0  0  0  0  0  0  0  0  0  0  0  0
   -6.2928   -0.1016    0.4391 H   0  0  0  0  0  0  0  0  0  0  0  0
  1  2  1  0
  2  3  1  0
  3  4  2  0
  4  5  1  0
  5  6  1  0
  6  7  1  0
  7  8  2  0
  7  9  1  0
  9 10  1  0
 10 11  2  0
 11 12  1  0
 12 13  2  0
 13 14  1  0
 14 15  2  0
 14 16  1  0
 16 17  1  0
 17 18  1  0
 18 19  1  0
  6  2  2  0
 15 10  1  0
 19 13  1  0
  1 20  1  0
  1 21  1  0
  1 22  1  0
  4 23  1  0
  9 24  1  0
 11 25  1  0
 12 26  1  0
 15 27  1  0
 17 28  1  0
 17 29  1  0
 18 30  1  0
 18 31  1  0
M  END
