
     RDKit          3D

 31 32  0  0  0  0  0  0  0  0999 V2000
    2.3965   -2.6498   -0.2438 C   0  0  0  0  0  0  0  0  0  0  0  0
    2.7060   -1.2018   -0.1477 C   0  0  0  0  0  0  0  0  0  0  0  0
    3.9805   -0.7886   -0.1432 N   0  0  0  0  0  0  0  0  0  0  0  0
    3.8842    0.5487   -0.0411 N   0  0  0  0  0  0  0  0  0  0  0  0
    5.0851    1.3468   -0.0076 C   0  0  0  0  0  0  0  0  0  0  0  0
    2.6004    0.9995    0.0212 C   0  0  0  0  0  0  0  0  0  0  0  0
    1.7959   -0.1114   -0.0468 C   0  0  0  0  0  0  0  0  0  0  0  0
    0.4118   -0.1846   -0.0235 N   0  0  0  0  0  0  0  0  0  0  0  0
   -0.4510    0.8921    0.0875 C   0  0  0  0  0  0  0  0  0  0  0  0
   -0.0720    2.0598    0.1666 O   0  0  0  0  0  0  0  0  0  0  0  0
   -1.9050    0.5731    0.0920 C   0  0  0  0  0  0  0  0  0  0  0  0
   -2.7797    1.5393   -0.2753 N   0  0  0  0  0  0  0  0  0  0  0  0
   -3.9966    1.0078   -0.1151 N   0  0  0  0  0  0  0  0  0  0  0  0
   -5.1621    1.8084   -0.4082 C   0  0  0  0  0  0  0  0  0  0  0  0
   -3.9716   -0.2735    0.3285 C   0  0  0  0  0  0  0  0  0  0  0  0
   -2.6340   -0.5946    0.4691 C   0  0  0  0  0  0  0  0  0  0  0  0
   -2.1727   -1.8635    0.9339 N   0  0  0  0  0  4  0  0  0  0  0  0
   -2.9071   -2.4817    1.7125 O   0  0  0  0  0  0  0  0  0  0  0  0
   -1.0872   -2.2592    0.4929 O   0  0  0  0  0  1  0  0  0  0  0  0
    1.7112   -2.8403   -1.0759 H   0  0  0  0  0  0  0  0  0  0  0  0
    3.3001   -3.2456   -0.4095 H   0  0  0  0  0  0  0  0  0  0  0  0
    1.9251   -2.9990    0.6803 H   0  0  0  0  0  0  0  0  0  0  0  0
    5.6781    1.0411    0.8579 H   0  0  0  0  0  0  0  0  0  0  0  0
    4.8187    2.4032    0.0772 H   0  0  0  0  0  0  0  0  0  0  0  0
    5.6390    1.1751   -0.9339 H   0  0  0  0  0  0  0  0  0  0  0  0
    2.3767    2.0539    0.1048 H   0  0  0  0  0  0  0  0  0  0  0  0
    0.0353   -1.1240   -0.0983 H   0  0  0  0  0  0  0  0  0  0  0  0
   -6.0633    1.2188   -0.2228 H   0  0  0  0  0  0  0  0  0  0  0  0
   -5.1493    2.6863    0.2425 H   0  0  0  0  0  0  0  0  0  0  0  0
   -5.1199    2.1061   -1.4589 H   0  0  0  0  0  0  0  0  0  0  0  0
   -4.8733   -0.8428    0.5132 H   0  0  0  0  0  0  0  0  0  0  0  0
  1  2  1  0
  2  3  2  0
  3  4  1  0
  4  5  1  0
  4  6  1  0
  6  7  2  0
  7  8  1  0
  8  9  1  0
  9 10  2  0
  9 11  1  0
 11 12  2  0
 12 13  1  0
 13 14  1  0
 13 15  1  0
 15 16  2  0
 16 17  1  0
 17 18  2  0
 17 19  1  0
  7  2  1  0
 16 11  1  0
  1 20  1  0
  1 21  1  0
  1 22  1  0
  5 23  1  0
  5 24  1  0
  5 25  1  0
  6 26  1  0
  8 27  1  0
 14 28  1  0
 14 29  1  0
 14 30  1  0
 15 31  1  0
M  CHG  2  17   1  19  -1
M  END
