
     RDKit          3D

 32 33  0  0  0  0  0  0  0  0999 V2000
    0.6694   -2.8572    0.2094 C   0  0  0  0  0  0  0  0  0  0  0  0
    0.0888   -1.5173   -0.0700 C   0  0  0  0  0  0  0  0  0  0  0  0
   -1.1906   -1.2911    0.2368 N   0  0  0  0  0  0  0  0  0  0  0  0
   -1.4385    0.0019   -0.1369 N   0  0  0  0  0  0  0  0  0  0  0  0
   -2.7167    0.5613    0.1878 C   0  0  0  0  0  0  0  0  0  0  0  0
   -3.7634   -0.3133    0.5377 C   0  0  0  0  0  0  0  0  0  0  0  0
   -5.0302    0.1774    0.8652 C   0  0  0  0  0  0  0  0  0  0  0  0
   -5.2669    1.5478    0.8618 C   0  0  0  0  0  0  0  0  0  0  0  0
   -4.2349    2.4259    0.5418 C   0  0  0  0  0  0  0  0  0  0  0  0
   -2.9640    1.9386    0.2121 C   0  0  0  0  0  0  0  0  0  0  0  0
   -0.3232    0.5248   -0.7705 C   0  0  0  0  0  0  0  0  0  0  0  0
   -0.3178    2.0332   -1.5763 Cl  0  0  0  0  0  0  0  0  0  0  0  0
    0.6998   -0.3971   -0.6879 C   0  0  0  0  0  0  0  0  0  0  0  0
    2.0502   -0.2401   -1.1954 C   0  0  0  0  0  0  0  0  0  0  0  0
    2.3182    0.4135   -2.1968 O   0  0  0  0  0  0  0  0  0  0  0  0
    3.0217   -0.8617   -0.4372 N   0  0  0  0  0  0  0  0  0  0  0  0
    4.4266   -0.5923   -0.7054 C   0  0  0  0  0  0  0  0  0  0  0  0
    4.8773    0.6330    0.0714 C   0  0  0  0  0  0  0  0  0  0  0  0
    4.3232    1.1141    1.0486 O   0  0  0  0  0  0  0  0  0  0  0  0
    6.0388    1.1433   -0.3821 O   0  0  0  0  0  0  0  0  0  0  0  0
   -0.1140   -3.6075    0.3616 H   0  0  0  0  0  0  0  0  0  0  0  0
    1.2850   -2.8240    1.1137 H   0  0  0  0  0  0  0  0  0  0  0  0
    1.2908   -3.1952   -0.6259 H   0  0  0  0  0  0  0  0  0  0  0  0
   -3.6125   -1.3918    0.5467 H   0  0  0  0  0  0  0  0  0  0  0  0
   -5.8285   -0.5139    1.1228 H   0  0  0  0  0  0  0  0  0  0  0  0
   -6.2507    1.9321    1.1181 H   0  0  0  0  0  0  0  0  0  0  0  0
   -4.4134    3.4986    0.5594 H   0  0  0  0  0  0  0  0  0  0  0  0
   -2.1938    2.6778    0.0296 H   0  0  0  0  0  0  0  0  0  0  0  0
    2.7833   -1.0568    0.5272 H   0  0  0  0  0  0  0  0  0  0  0  0
    5.0030   -1.4564   -0.3646 H   0  0  0  0  0  0  0  0  0  0  0  0
    4.5817   -0.4313   -1.7760 H   0  0  0  0  0  0  0  0  0  0  0  0
    6.2013    1.9238    0.1887 H   0  0  0  0  0  0  0  0  0  0  0  0
  1  2  1  0
  2  3  2  0
  3  4  1  0
  4  5  1  0
  5  6  2  0
  6  7  1  0
  7  8  2  0
  8  9  1  0
  9 10  2  0
  4 11  1  0
 11 12  1  0
 11 13  2  0
 13 14  1  0
 14 15  2  0
 14 16  1  0
 16 17  1  0
 17 18  1  0
 18 19  2  0
 18 20  1  0
 13  2  1  0
 10  5  1  0
  1 21  1  0
  1 22  1  0
  1 23  1  0
  6 24  1  0
  7 25  1  0
  8 26  1  0
  9 27  1  0
 10 28  1  0
 16 29  1  0
 17 30  1  0
 17 31  1  0
 20 32  1  0
M  END
