
     RDKit          3D

 39 41  0  0  0  0  0  0  0  0999 V2000
   -0.6310    0.7417   -2.5361 C   0  0  0  0  0  0  0  0  0  0  0  0
    0.7027    0.4026   -1.9973 C   0  0  0  0  0  0  0  0  0  0  0  0
    1.6384    0.0782   -2.9228 O   0  0  0  0  0  0  0  0  0  0  0  0
    2.8227   -0.2247   -2.2984 N   0  0  0  0  0  0  0  0  0  0  0  0
    2.6129   -0.0659   -0.9811 C   0  0  0  0  0  0  0  0  0  0  0  0
    3.7088   -0.3010   -0.0442 C   0  0  0  0  0  0  0  0  0  0  0  0
    4.0470    0.6485    0.9283 C   0  0  0  0  0  0  0  0  0  0  0  0
    5.1071    0.4132    1.8079 C   0  0  0  0  0  0  0  0  0  0  0  0
    5.8434   -0.7667    1.7164 C   0  0  0  0  0  0  0  0  0  0  0  0
    5.5249   -1.7121    0.7435 C   0  0  0  0  0  0  0  0  0  0  0  0
    4.4647   -1.4792   -0.1354 C   0  0  0  0  0  0  0  0  0  0  0  0
    1.2562    0.3179   -0.7323 C   0  0  0  0  0  0  0  0  0  0  0  0
    0.5846    0.5439    0.5302 C   0  0  0  0  0  0  0  0  0  0  0  0
    1.1132    0.4079    1.6254 O   0  0  0  0  0  0  0  0  0  0  0  0
   -0.7199    0.9114    0.3768 O   0  0  0  0  0  0  0  0  0  0  0  0
   -1.4120    1.1506    1.6018 C   0  0  0  0  0  0  0  0  0  0  0  0
   -2.8716    1.4495    1.3080 C   0  0  0  0  0  0  0  0  0  0  0  0
   -3.3936    2.5016    1.6768 O   0  0  0  0  0  0  0  0  0  0  0  0
   -3.6916    0.4431    0.5675 C   0  0  0  0  0  0  0  0  0  0  0  0
   -4.9380    0.8432    0.0654 C   0  0  0  0  0  0  0  0  0  0  0  0
   -5.7392   -0.0580   -0.6380 C   0  0  0  0  0  0  0  0  0  0  0  0
   -5.3031   -1.3656   -0.8408 C   0  0  0  0  0  0  0  0  0  0  0  0
   -4.0690   -1.7747   -0.3379 C   0  0  0  0  0  0  0  0  0  0  0  0
   -3.2639   -0.8756    0.3673 C   0  0  0  0  0  0  0  0  0  0  0  0
   -1.3784    0.0204   -2.1926 H   0  0  0  0  0  0  0  0  0  0  0  0
   -0.9349    1.7423   -2.2140 H   0  0  0  0  0  0  0  0  0  0  0  0
   -0.6330    0.7293   -3.6308 H   0  0  0  0  0  0  0  0  0  0  0  0
    3.4939    1.5806    1.0125 H   0  0  0  0  0  0  0  0  0  0  0  0
    5.3580    1.1532    2.5636 H   0  0  0  0  0  0  0  0  0  0  0  0
    6.6685   -0.9471    2.4006 H   0  0  0  0  0  0  0  0  0  0  0  0
    6.1031   -2.6290    0.6650 H   0  0  0  0  0  0  0  0  0  0  0  0
    4.2326   -2.2220   -0.8961 H   0  0  0  0  0  0  0  0  0  0  0  0
   -1.3518    0.2918    2.2800 H   0  0  0  0  0  0  0  0  0  0  0  0
   -0.9774    2.0290    2.0932 H   0  0  0  0  0  0  0  0  0  0  0  0
   -5.2916    1.8616    0.2187 H   0  0  0  0  0  0  0  0  0  0  0  0
   -6.7041    0.2613   -1.0247 H   0  0  0  0  0  0  0  0  0  0  0  0
   -5.9284   -2.0680   -1.3870 H   0  0  0  0  0  0  0  0  0  0  0  0
   -3.7353   -2.7986   -0.4921 H   0  0  0  0  0  0  0  0  0  0  0  0
   -2.3147   -1.2350    0.7527 H   0  0  0  0  0  0  0  0  0  0  0  0
  1  2  1  0
  2  3  1  0
  3  4  1  0
  4  5  2  0
  5  6  1  0
  6  7  2  0
  7  8  1  0
  8  9  2  0
  9 10  1  0
 10 11  2  0
  5 12  1  0
 12 13  1  0
 13 14  2  0
 13 15  1  0
 15 16  1  0
 16 17  1  0
 17 18  2  0
 17 19  1  0
 19 20  2  0
 20 21  1  0
 21 22  2  0
 22 23  1  0
 23 24  2  0
 12  2  2  0
 24 19  1  0
 11  6  1  0
  1 25  1  0
  1 26  1  0
  1 27  1  0
  7 28  1  0
  8 29  1  0
  9 30  1  0
 10 31  1  0
 11 32  1  0
 16 33  1  0
 16 34  1  0
 20 35  1  0
 21 36  1  0
 22 37  1  0
 23 38  1  0
 24 39  1  0
M  END
