
     RDKit          3D

 24 25  0  0  0  0  0  0  0  0999 V2000
    3.1328   -0.7707   -0.7034 C   0  0  0  0  0  0  0  0  0  0  0  0
    2.7011   -0.1453    0.6115 C   0  0  0  0  0  0  0  0  0  0  0  0
    1.6519    1.3116    0.3144 S   0  0  0  0  0  0  0  0  0  0  0  0
    0.2074    0.6158    1.1424 C   0  0  0  0  0  0  0  0  0  0  0  0
   -0.9908    0.5253    0.2244 C   0  0  0  0  0  0  0  0  0  0  0  0
   -1.1587   -0.5354   -0.6846 C   0  0  0  0  0  0  0  0  0  0  0  0
   -2.2684   -0.5851   -1.5321 C   0  0  0  0  0  0  0  0  0  0  0  0
   -3.2247    0.4276   -1.4905 C   0  0  0  0  0  0  0  0  0  0  0  0
   -3.0652    1.4891   -0.6042 C   0  0  0  0  0  0  0  0  0  0  0  0
   -4.2409    2.7447   -0.5550 Cl  0  0  0  0  0  0  0  0  0  0  0  0
   -1.9592    1.5445    0.2453 C   0  0  0  0  0  0  0  0  0  0  0  0
    0.5978   -0.6574    1.6639 N   0  0  0  0  0  0  0  0  0  0  0  0
    1.8632   -1.1155    1.4220 C   0  0  0  0  0  0  0  0  0  0  0  0
    2.2479   -2.2069    1.8215 O   0  0  0  0  0  0  0  0  0  0  0  0
    3.7682   -1.6444   -0.5193 H   0  0  0  0  0  0  0  0  0  0  0  0
    3.7096   -0.0658   -1.3117 H   0  0  0  0  0  0  0  0  0  0  0  0
    2.2763   -1.1191   -1.2923 H   0  0  0  0  0  0  0  0  0  0  0  0
    3.5664    0.1576    1.2087 H   0  0  0  0  0  0  0  0  0  0  0  0
   -0.0369    1.2383    2.0103 H   0  0  0  0  0  0  0  0  0  0  0  0
   -0.4210   -1.3341   -0.7443 H   0  0  0  0  0  0  0  0  0  0  0  0
   -2.3834   -1.4128   -2.2282 H   0  0  0  0  0  0  0  0  0  0  0  0
   -4.0852    0.3861   -2.1528 H   0  0  0  0  0  0  0  0  0  0  0  0
   -1.8497    2.3895    0.9222 H   0  0  0  0  0  0  0  0  0  0  0  0
   -0.0386   -1.2375    2.1930 H   0  0  0  0  0  0  0  0  0  0  0  0
  1  2  1  0
  2  3  1  0
  3  4  1  0
  4  5  1  0
  5  6  2  0
  6  7  1  0
  7  8  2  0
  8  9  1  0
  9 10  1  0
  9 11  2  0
  4 12  1  0
 12 13  1  0
 13 14  2  0
 13  2  1  0
 11  5  1  0
  1 15  1  0
  1 16  1  0
  1 17  1  0
  2 18  1  0
  4 19  1  0
  6 20  1  0
  7 21  1  0
  8 22  1  0
 11 23  1  0
 12 24  1  0
M  END
