
     RDKit          3D

 39 40  0  0  0  0  0  0  0  0999 V2000
    1.6761    3.5993    2.2136 C   0  0  0  0  0  0  0  0  0  0  0  0
    1.0422    2.3154    2.7129 C   0  0  0  0  0  0  0  0  0  0  0  0
    0.2042    1.6649    1.6296 C   0  0  0  0  0  0  0  0  0  0  0  0
   -0.9654    2.0193    1.4622 O   0  0  0  0  0  0  0  0  0  0  0  0
    0.7869    0.5846    0.7582 C   0  0  0  0  0  0  0  0  0  0  0  0
    2.1753    0.3736    0.7431 C   0  0  0  0  0  0  0  0  0  0  0  0
    2.7256   -0.6389   -0.0386 C   0  0  0  0  0  0  0  0  0  0  0  0
    1.9038   -1.4299   -0.8385 C   0  0  0  0  0  0  0  0  0  0  0  0
    0.5225   -1.2352   -0.8325 C   0  0  0  0  0  0  0  0  0  0  0  0
   -0.0557   -0.2276   -0.0485 C   0  0  0  0  0  0  0  0  0  0  0  0
   -1.4534    0.0077   -0.0428 N   0  0  0  0  0  0  0  0  0  0  0  0
   -2.4539   -0.6548   -0.7295 C   0  0  0  0  0  0  0  0  0  0  0  0
   -2.2998   -1.6111   -1.4815 O   0  0  0  0  0  0  0  0  0  0  0  0
   -3.8395   -0.0639   -0.4469 C   0  0  0  0  0  0  0  0  0  0  0  0
   -4.2558   -0.3380    0.9974 C   0  0  0  0  0  0  0  0  0  0  0  0
   -4.8840   -0.6222   -1.4120 C   0  0  0  0  0  0  0  0  0  0  0  0
    2.3843   -2.4220   -1.6544 O   0  0  0  0  0  0  0  0  0  0  0  0
    3.7963   -2.2995   -1.8561 C   0  0  0  0  0  0  0  0  0  0  0  0
    4.5023   -2.0423   -0.5355 C   0  0  0  0  0  0  0  0  0  0  0  0
    4.0870   -0.7903    0.0256 O   0  0  0  0  0  0  0  0  0  0  0  0
    2.3523    3.4119    1.3737 H   0  0  0  0  0  0  0  0  0  0  0  0
    2.2486    4.0779    3.0140 H   0  0  0  0  0  0  0  0  0  0  0  0
    0.9122    4.3052    1.8707 H   0  0  0  0  0  0  0  0  0  0  0  0
    1.7905    1.6223    3.1074 H   0  0  0  0  0  0  0  0  0  0  0  0
    0.3754    2.5343    3.5560 H   0  0  0  0  0  0  0  0  0  0  0  0
    2.8582    0.9806    1.3283 H   0  0  0  0  0  0  0  0  0  0  0  0
   -0.0763   -1.8801   -1.4679 H   0  0  0  0  0  0  0  0  0  0  0  0
   -1.7426    0.8114    0.5213 H   0  0  0  0  0  0  0  0  0  0  0  0
   -3.7790    1.0205   -0.6050 H   0  0  0  0  0  0  0  0  0  0  0  0
   -5.2551    0.0625    1.1982 H   0  0  0  0  0  0  0  0  0  0  0  0
   -3.5649    0.1242    1.7099 H   0  0  0  0  0  0  0  0  0  0  0  0
   -4.2698   -1.4136    1.2059 H   0  0  0  0  0  0  0  0  0  0  0  0
   -4.5939   -0.4334   -2.4514 H   0  0  0  0  0  0  0  0  0  0  0  0
   -5.0027   -1.7048   -1.2918 H   0  0  0  0  0  0  0  0  0  0  0  0
   -5.8593   -0.1532   -1.2444 H   0  0  0  0  0  0  0  0  0  0  0  0
    4.1512   -3.2348   -2.3001 H   0  0  0  0  0  0  0  0  0  0  0  0
    3.9776   -1.4894   -2.5733 H   0  0  0  0  0  0  0  0  0  0  0  0
    5.5851   -1.9945   -0.6875 H   0  0  0  0  0  0  0  0  0  0  0  0
    4.2935   -2.8357    0.1928 H   0  0  0  0  0  0  0  0  0  0  0  0
  1  2  1  0
  2  3  1  0
  3  4  2  0
  3  5  1  0
  5  6  2  0
  6  7  1  0
  7  8  2  0
  8  9  1  0
  9 10  2  0
 10 11  1  0
 11 12  1  0
 12 13  2  0
 12 14  1  0
 14 15  1  0
 14 16  1  0
  8 17  1  0
 17 18  1  0
 18 19  1  0
 19 20  1  0
 10  5  1  0
 20  7  1  0
  1 21  1  0
  1 22  1  0
  1 23  1  0
  2 24  1  0
  2 25  1  0
  6 26  1  0
  9 27  1  0
 11 28  1  0
 14 29  1  0
 15 30  1  0
 15 31  1  0
 15 32  1  0
 16 33  1  0
 16 34  1  0
 16 35  1  0
 18 36  1  0
 18 37  1  0
 19 38  1  0
 19 39  1  0
M  END
