
     RDKit          3D

 41 42  0  0  0  0  0  0  0  0999 V2000
   -3.8515    3.3589   -0.4216 C   0  0  0  0  0  0  0  0  0  0  0  0
   -4.3608    2.1626   -1.2019 C   0  0  0  0  0  0  0  0  0  0  0  0
   -4.1422    0.8825   -0.4207 C   0  0  0  0  0  0  0  0  0  0  0  0
   -4.9908    0.4843    0.3756 O   0  0  0  0  0  0  0  0  0  0  0  0
   -2.8748    0.1064   -0.5800 C   0  0  0  0  0  0  0  0  0  0  0  0
   -1.7914    0.5759   -1.3325 C   0  0  0  0  0  0  0  0  0  0  0  0
   -0.6216   -0.1851   -1.4254 C   0  0  0  0  0  0  0  0  0  0  0  0
   -0.5298   -1.4032   -0.7499 C   0  0  0  0  0  0  0  0  0  0  0  0
    0.6443   -2.0955   -0.8998 O   0  0  0  0  0  0  0  0  0  0  0  0
    1.3739   -2.1688    0.3337 C   0  0  0  0  0  0  0  0  0  0  0  0
    2.7290   -1.6245    0.0472 C   0  0  0  0  0  0  0  0  0  0  0  0
    3.8056   -2.0881   -0.6829 C   0  0  0  0  0  0  0  0  0  0  0  0
    4.8020   -1.0808   -0.6131 C   0  0  0  0  0  0  0  0  0  0  0  0
    4.2825   -0.0596    0.1667 C   0  0  0  0  0  0  0  0  0  0  0  0
    4.8530    1.2050    0.5703 C   0  0  0  0  0  0  0  0  0  0  0  0
    5.9545    1.6231    0.2383 O   0  0  0  0  0  0  0  0  0  0  0  0
    3.9891    1.8722    1.3865 O   0  0  0  0  0  0  0  0  0  0  0  0
    4.4684    3.1349    1.8664 C   0  0  0  0  0  0  0  0  0  0  0  0
    3.0175   -0.4000    0.5744 O   0  0  0  0  0  0  0  0  0  0  0  0
   -1.6095   -1.9035   -0.0091 C   0  0  0  0  0  0  0  0  0  0  0  0
   -1.4242   -3.1229    0.5856 O   0  0  0  0  0  0  0  0  0  0  0  0
   -2.5244   -3.6690    1.2964 C   0  0  0  0  0  0  0  0  0  0  0  0
   -2.7764   -1.1356    0.0732 C   0  0  0  0  0  0  0  0  0  0  0  0
   -2.7714    3.2842   -0.2387 H   0  0  0  0  0  0  0  0  0  0  0  0
   -4.0391    4.2846   -0.9728 H   0  0  0  0  0  0  0  0  0  0  0  0
   -4.3522    3.4340    0.5499 H   0  0  0  0  0  0  0  0  0  0  0  0
   -5.4408    2.2642   -1.3674 H   0  0  0  0  0  0  0  0  0  0  0  0
   -3.9111    2.1023   -2.1955 H   0  0  0  0  0  0  0  0  0  0  0  0
   -1.8176    1.5301   -1.8445 H   0  0  0  0  0  0  0  0  0  0  0  0
    0.2284    0.1747   -2.0055 H   0  0  0  0  0  0  0  0  0  0  0  0
    0.9101   -1.6049    1.1533 H   0  0  0  0  0  0  0  0  0  0  0  0
    1.4476   -3.2208    0.6358 H   0  0  0  0  0  0  0  0  0  0  0  0
    3.8530   -3.0297   -1.2183 H   0  0  0  0  0  0  0  0  0  0  0  0
    5.7850   -1.0869   -1.0773 H   0  0  0  0  0  0  0  0  0  0  0  0
    5.3563    3.0020    2.4870 H   0  0  0  0  0  0  0  0  0  0  0  0
    4.6752    3.8100    1.0283 H   0  0  0  0  0  0  0  0  0  0  0  0
    3.6741    3.5791    2.4854 H   0  0  0  0  0  0  0  0  0  0  0  0
   -2.2290   -4.6579    1.6631 H   0  0  0  0  0  0  0  0  0  0  0  0
   -2.7696   -3.0539    2.1628 H   0  0  0  0  0  0  0  0  0  0  0  0
   -3.3907   -3.8013    0.6435 H   0  0  0  0  0  0  0  0  0  0  0  0
   -3.6307   -1.4791    0.6428 H   0  0  0  0  0  0  0  0  0  0  0  0
  1  2  1  0
  2  3  1  0
  3  4  2  0
  3  5  1  0
  5  6  2  0
  6  7  1  0
  7  8  2  0
  8  9  1  0
  9 10  1  0
 10 11  1  0
 11 12  2  0
 12 13  1  0
 13 14  2  0
 14 15  1  0
 15 16  2  0
 15 17  1  0
 17 18  1  0
 14 19  1  0
  8 20  1  0
 20 21  1  0
 21 22  1  0
 20 23  2  0
 23  5  1  0
 19 11  1  0
  1 24  1  0
  1 25  1  0
  1 26  1  0
  2 27  1  0
  2 28  1  0
  6 29  1  0
  7 30  1  0
 10 31  1  0
 10 32  1  0
 12 33  1  0
 13 34  1  0
 18 35  1  0
 18 36  1  0
 18 37  1  0
 22 38  1  0
 22 39  1  0
 22 40  1  0
 23 41  1  0
M  END
