
     RDKit          3D

 36 37  0  0  0  0  0  0  0  0999 V2000
   -4.4000   -2.9149    0.1781 C   0  0  0  0  0  0  0  0  0  0  0  0
   -3.1311   -2.3538   -0.4391 C   0  0  0  0  0  0  0  0  0  0  0  0
   -2.7460   -1.0022    0.1422 C   0  0  0  0  0  0  0  0  0  0  0  0
   -3.4030   -0.4545    1.0185 O   0  0  0  0  0  0  0  0  0  0  0  0
   -1.5901   -0.5160   -0.4414 N   0  0  0  0  0  0  0  0  0  0  0  0
   -0.9206    0.7061   -0.1890 C   0  0  0  0  0  0  0  0  0  0  0  0
   -1.3862    1.6586    0.7250 C   0  0  0  0  0  0  0  0  0  0  0  0
   -0.6812    2.8549    0.9294 C   0  0  0  0  0  0  0  0  0  0  0  0
   -1.1417    3.8897    1.8881 C   0  0  0  0  0  0  0  0  0  0  0  0
   -0.5806    4.9464    2.1131 O   0  0  0  0  0  0  0  0  0  0  0  0
   -2.2788    3.5538    2.5180 O   0  0  0  0  0  0  0  0  0  0  0  0
    0.4955    3.1028    0.2151 C   0  0  0  0  0  0  0  0  0  0  0  0
    0.9700    2.1620   -0.6977 C   0  0  0  0  0  0  0  0  0  0  0  0
    0.2745    0.9623   -0.9001 C   0  0  0  0  0  0  0  0  0  0  0  0
    0.9258   -0.2214   -2.0875 S   0  0  0  0  0  0  0  0  0  0  0  0
    2.4442   -0.7177   -1.2899 C   0  0  0  0  0  0  0  0  0  0  0  0
    3.6464   -0.6301   -1.9997 C   0  0  0  0  0  0  0  0  0  0  0  0
    4.8477   -1.0206   -1.4040 C   0  0  0  0  0  0  0  0  0  0  0  0
    4.8529   -1.5069   -0.0979 C   0  0  0  0  0  0  0  0  0  0  0  0
    3.6578   -1.6069    0.6123 C   0  0  0  0  0  0  0  0  0  0  0  0
    2.4557   -1.2174    0.0173 C   0  0  0  0  0  0  0  0  0  0  0  0
   -4.6431   -3.8850   -0.2660 H   0  0  0  0  0  0  0  0  0  0  0  0
   -5.2478   -2.2414    0.0145 H   0  0  0  0  0  0  0  0  0  0  0  0
   -4.2843   -3.0525    1.2583 H   0  0  0  0  0  0  0  0  0  0  0  0
   -3.2720   -2.2401   -1.5199 H   0  0  0  0  0  0  0  0  0  0  0  0
   -2.3044   -3.0531   -0.2701 H   0  0  0  0  0  0  0  0  0  0  0  0
   -1.1483   -1.0969   -1.1481 H   0  0  0  0  0  0  0  0  0  0  0  0
   -2.2997    1.4924    1.2874 H   0  0  0  0  0  0  0  0  0  0  0  0
   -2.4657    4.3120    3.1092 H   0  0  0  0  0  0  0  0  0  0  0  0
    1.0462    4.0296    0.3669 H   0  0  0  0  0  0  0  0  0  0  0  0
    1.8863    2.3721   -1.2452 H   0  0  0  0  0  0  0  0  0  0  0  0
    3.6593   -0.2558   -3.0208 H   0  0  0  0  0  0  0  0  0  0  0  0
    5.7788   -0.9465   -1.9602 H   0  0  0  0  0  0  0  0  0  0  0  0
    5.7882   -1.8107    0.3658 H   0  0  0  0  0  0  0  0  0  0  0  0
    3.6608   -1.9895    1.6300 H   0  0  0  0  0  0  0  0  0  0  0  0
    1.5345   -1.3090    0.5873 H   0  0  0  0  0  0  0  0  0  0  0  0
  1  2  1  0
  2  3  1  0
  3  4  2  0
  3  5  1  0
  5  6  1  0
  6  7  2  0
  7  8  1  0
  8  9  1  0
  9 10  2  0
  9 11  1  0
  8 12  2  0
 12 13  1  0
 13 14  2  0
 14 15  1  0
 15 16  1  0
 16 17  2  0
 17 18  1  0
 18 19  2  0
 19 20  1  0
 20 21  2  0
 14  6  1  0
 21 16  1  0
  1 22  1  0
  1 23  1  0
  1 24  1  0
  2 25  1  0
  2 26  1  0
  5 27  1  0
  7 28  1  0
 11 29  1  0
 12 30  1  0
 13 31  1  0
 17 32  1  0
 18 33  1  0
 19 34  1  0
 20 35  1  0
 21 36  1  0
M  END
