
     RDKit          3D

 41 42  0  0  0  0  0  0  0  0999 V2000
    5.3586    0.4719   -2.7627 C   0  0  0  0  0  0  0  0  0  0  0  0
    4.1402    0.1211   -3.5971 C   0  0  0  0  0  0  0  0  0  0  0  0
    3.0335   -0.4785   -2.7469 C   0  0  0  0  0  0  0  0  0  0  0  0
    2.7793   -1.6748   -2.8222 O   0  0  0  0  0  0  0  0  0  0  0  0
    2.4201    0.4710   -1.9447 N   0  0  0  0  0  0  0  0  0  0  0  0
    1.3889    0.2595   -1.0369 C   0  0  0  0  0  0  0  0  0  0  0  0
    0.7455   -1.2918   -0.7605 S   0  0  0  0  0  0  0  0  0  0  0  0
   -0.3810   -0.7194    0.3753 C   0  0  0  0  0  0  0  0  0  0  0  0
   -0.2568    0.6415    0.5737 C   0  0  0  0  0  0  0  0  0  0  0  0
    0.7653    1.2101   -0.2470 C   0  0  0  0  0  0  0  0  0  0  0  0
    1.1252    2.5959   -0.2606 C   0  0  0  0  0  0  0  0  0  0  0  0
    1.4425    3.7113   -0.2995 N   0  0  0  0  0  0  0  0  0  0  0  0
   -1.1331    1.3104    1.5872 C   0  0  0  0  0  0  0  0  0  0  0  0
   -2.5456    0.6403    1.6653 C   0  0  0  0  0  0  0  0  0  0  0  0
   -3.5014    1.4206    0.7320 C   0  0  0  0  0  0  0  0  0  0  0  0
   -3.0863    0.7684    3.1007 C   0  0  0  0  0  0  0  0  0  0  0  0
   -2.6480   -0.7968    1.2848 N   0  0  0  0  0  0  0  0  0  0  0  0
   -1.3885   -1.5677    1.1256 C   0  0  0  0  0  0  0  0  0  0  0  0
   -0.8353   -1.9629    2.5061 C   0  0  0  0  0  0  0  0  0  0  0  0
   -1.7675   -2.8591    0.3721 C   0  0  0  0  0  0  0  0  0  0  0  0
    5.7273   -0.4059   -2.2217 H   0  0  0  0  0  0  0  0  0  0  0  0
    6.1639    0.8441   -3.4034 H   0  0  0  0  0  0  0  0  0  0  0  0
    5.1290    1.2456   -2.0231 H   0  0  0  0  0  0  0  0  0  0  0  0
    3.7580    1.0092   -4.1129 H   0  0  0  0  0  0  0  0  0  0  0  0
    4.4134   -0.6060   -4.3702 H   0  0  0  0  0  0  0  0  0  0  0  0
    2.7485    1.4256   -2.0375 H   0  0  0  0  0  0  0  0  0  0  0  0
   -1.2255    2.3813    1.3708 H   0  0  0  0  0  0  0  0  0  0  0  0
   -0.6234    1.2319    2.5567 H   0  0  0  0  0  0  0  0  0  0  0  0
   -4.5225    1.0228    0.7772 H   0  0  0  0  0  0  0  0  0  0  0  0
   -3.1682    1.3705   -0.3113 H   0  0  0  0  0  0  0  0  0  0  0  0
   -3.5545    2.4787    1.0140 H   0  0  0  0  0  0  0  0  0  0  0  0
   -3.1058    1.8168    3.4203 H   0  0  0  0  0  0  0  0  0  0  0  0
   -2.4669    0.2169    3.8163 H   0  0  0  0  0  0  0  0  0  0  0  0
   -4.1093    0.3818    3.1815 H   0  0  0  0  0  0  0  0  0  0  0  0
   -3.1573   -0.8662    0.4030 H   0  0  0  0  0  0  0  0  0  0  0  0
   -0.5386   -1.0963    3.1058 H   0  0  0  0  0  0  0  0  0  0  0  0
   -1.5760   -2.5278    3.0844 H   0  0  0  0  0  0  0  0  0  0  0  0
    0.0549   -2.5955    2.4044 H   0  0  0  0  0  0  0  0  0  0  0  0
   -0.9139   -3.5414    0.2818 H   0  0  0  0  0  0  0  0  0  0  0  0
   -2.5577   -3.4084    0.8991 H   0  0  0  0  0  0  0  0  0  0  0  0
   -2.1311   -2.6489   -0.6413 H   0  0  0  0  0  0  0  0  0  0  0  0
  1  2  1  0
  2  3  1  0
  3  4  2  0
  3  5  1  0
  5  6  1  0
  6  7  1  0
  7  8  1  0
  8  9  2  0
  9 10  1  0
 10 11  1  0
 11 12  3  0
  9 13  1  0
 13 14  1  0
 14 15  1  0
 14 16  1  0
 14 17  1  0
 17 18  1  0
 18 19  1  0
 18 20  1  0
 10  6  2  0
 18  8  1  0
  1 21  1  0
  1 22  1  0
  1 23  1  0
  2 24  1  0
  2 25  1  0
  5 26  1  0
 13 27  1  0
 13 28  1  0
 15 29  1  0
 15 30  1  0
 15 31  1  0
 16 32  1  0
 16 33  1  0
 16 34  1  0
 17 35  1  0
 19 36  1  0
 19 37  1  0
 19 38  1  0
 20 39  1  0
 20 40  1  0
 20 41  1  0
M  END
