
     RDKit          3D

 38 39  0  0  0  0  0  0  0  0999 V2000
    5.8422    0.2626   -0.2728 C   0  0  0  0  0  0  0  0  0  0  0  0
    4.5087    0.4532    0.4345 C   0  0  0  0  0  0  0  0  0  0  0  0
    3.3008   -0.0102   -0.3939 C   0  0  0  0  0  0  0  0  0  0  0  0
    3.3134   -1.5170   -0.6551 C   0  0  0  0  0  0  0  0  0  0  0  0
    2.0725    0.3643    0.2986 N   0  0  0  0  0  0  0  0  0  0  0  0
    0.8825    0.5479   -0.3817 C   0  0  0  0  0  0  0  0  0  0  0  0
    0.8109    0.4945   -1.6046 O   0  0  0  0  0  0  0  0  0  0  0  0
   -0.2897    0.7723    0.4806 C   0  0  0  0  0  0  0  0  0  0  0  0
   -0.2032    1.3760    1.7237 C   0  0  0  0  0  0  0  0  0  0  0  0
   -1.6947    1.4798    2.5297 S   0  0  0  0  0  0  0  0  0  0  0  0
   -2.5193    0.7271    1.2355 C   0  0  0  0  0  0  0  0  0  0  0  0
   -1.6762    0.4411    0.1664 C   0  0  0  0  0  0  0  0  0  0  0  0
   -2.1172   -0.1904   -1.1372 C   0  0  0  0  0  0  0  0  0  0  0  0
   -3.5622    0.1043   -1.5380 C   0  0  0  0  0  0  0  0  0  0  0  0
   -4.6079   -0.7273   -0.7955 C   0  0  0  0  0  0  0  0  0  0  0  0
   -4.4357   -0.8259    0.7202 C   0  0  0  0  0  0  0  0  0  0  0  0
   -3.9983    0.4797    1.3797 C   0  0  0  0  0  0  0  0  0  0  0  0
    6.0760   -0.7968   -0.4114 H   0  0  0  0  0  0  0  0  0  0  0  0
    6.6485    0.7031    0.3226 H   0  0  0  0  0  0  0  0  0  0  0  0
    5.8406    0.7498   -1.2529 H   0  0  0  0  0  0  0  0  0  0  0  0
    4.3929    1.5194    0.6690 H   0  0  0  0  0  0  0  0  0  0  0  0
    4.5308   -0.0718    1.3977 H   0  0  0  0  0  0  0  0  0  0  0  0
    3.3111    0.5092   -1.3602 H   0  0  0  0  0  0  0  0  0  0  0  0
    4.1825   -1.8134   -1.2496 H   0  0  0  0  0  0  0  0  0  0  0  0
    2.4190   -1.8287   -1.2056 H   0  0  0  0  0  0  0  0  0  0  0  0
    3.3310   -2.0795    0.2849 H   0  0  0  0  0  0  0  0  0  0  0  0
    2.0150    0.1656    1.2877 H   0  0  0  0  0  0  0  0  0  0  0  0
    0.6767    1.7783    2.2065 H   0  0  0  0  0  0  0  0  0  0  0  0
   -1.9435   -1.2721   -1.0913 H   0  0  0  0  0  0  0  0  0  0  0  0
   -1.4953    0.2000   -1.9483 H   0  0  0  0  0  0  0  0  0  0  0  0
   -3.7785    1.1730   -1.4134 H   0  0  0  0  0  0  0  0  0  0  0  0
   -3.6778   -0.1024   -2.6098 H   0  0  0  0  0  0  0  0  0  0  0  0
   -4.6213   -1.7444   -1.2072 H   0  0  0  0  0  0  0  0  0  0  0  0
   -5.5954   -0.3015   -1.0145 H   0  0  0  0  0  0  0  0  0  0  0  0
   -5.3981   -1.1363    1.1463 H   0  0  0  0  0  0  0  0  0  0  0  0
   -3.7256   -1.6283    0.9588 H   0  0  0  0  0  0  0  0  0  0  0  0
   -4.2562    0.4150    2.4448 H   0  0  0  0  0  0  0  0  0  0  0  0
   -4.5588    1.3295    0.9719 H   0  0  0  0  0  0  0  0  0  0  0  0
  1  2  1  0
  2  3  1  0
  3  4  1  0
  3  5  1  0
  5  6  1  0
  6  7  2  0
  6  8  1  0
  8  9  2  0
  9 10  1  0
 10 11  1  0
 11 12  2  0
 12 13  1  0
 13 14  1  0
 14 15  1  0
 15 16  1  0
 16 17  1  0
 12  8  1  0
 17 11  1  0
  1 18  1  0
  1 19  1  0
  1 20  1  0
  2 21  1  0
  2 22  1  0
  3 23  1  0
  4 24  1  0
  4 25  1  0
  4 26  1  0
  5 27  1  0
  9 28  1  0
 13 29  1  0
 13 30  1  0
 14 31  1  0
 14 32  1  0
 15 33  1  0
 15 34  1  0
 16 35  1  0
 16 36  1  0
 17 37  1  0
 17 38  1  0
M  END
