
     RDKit          3D

 33 34  0  0  0  0  0  0  0  0999 V2000
   -2.9082   -1.8270    0.9975 C   0  0  0  0  0  0  0  0  0  0  0  0
   -3.3102   -0.3593    1.0662 C   0  0  0  0  0  0  0  0  0  0  0  0
   -2.7143    0.5039   -0.0618 C   0  0  0  0  0  0  0  0  0  0  0  0
   -3.3279    1.9190   -0.0792 C   0  0  0  0  0  0  0  0  0  0  0  0
   -4.7635    1.9496   -0.5855 C   0  0  0  0  0  0  0  0  0  0  0  0
   -1.1932    0.6268    0.1111 C   0  0  0  0  0  0  0  0  0  0  0  0
   -0.7023    1.5071    0.8095 O   0  0  0  0  0  0  0  0  0  0  0  0
   -0.5078   -0.3600   -0.5621 N   0  0  0  0  0  0  0  0  0  0  0  0
    0.8517   -0.5468   -0.5968 C   0  0  0  0  0  0  0  0  0  0  0  0
    1.3965   -1.5305   -1.2764 N   0  0  0  0  0  0  0  0  0  0  0  0
    2.7729   -1.5305   -1.1720 N   0  0  0  0  0  0  0  0  0  0  0  0
    3.2199   -0.5443   -0.4153 C   0  0  0  0  0  0  0  0  0  0  0  0
    4.6296   -0.3558   -0.1699 C   0  0  0  0  0  0  0  0  0  0  0  0
    5.6510   -1.1466   -0.6715 C   0  0  0  0  0  0  0  0  0  0  0  0
    6.9451   -0.7157   -0.2573 C   0  0  0  0  0  0  0  0  0  0  0  0
    6.8789    0.3948    0.5513 C   0  0  0  0  0  0  0  0  0  0  0  0
    5.2689    0.9069    0.8038 S   0  0  0  0  0  0  0  0  0  0  0  0
    1.9658    0.4471    0.2157 S   0  0  0  0  0  0  0  0  0  0  0  0
   -1.8426   -1.9628    1.2026 H   0  0  0  0  0  0  0  0  0  0  0  0
   -3.1338   -2.2523    0.0146 H   0  0  0  0  0  0  0  0  0  0  0  0
   -3.4606   -2.4010    1.7488 H   0  0  0  0  0  0  0  0  0  0  0  0
   -3.0134    0.0416    2.0433 H   0  0  0  0  0  0  0  0  0  0  0  0
   -4.4039   -0.3186    1.0268 H   0  0  0  0  0  0  0  0  0  0  0  0
   -2.9197    0.0335   -1.0323 H   0  0  0  0  0  0  0  0  0  0  0  0
   -2.7268    2.5668   -0.7303 H   0  0  0  0  0  0  0  0  0  0  0  0
   -3.2882    2.3645    0.9227 H   0  0  0  0  0  0  0  0  0  0  0  0
   -4.8389    1.4985   -1.5799 H   0  0  0  0  0  0  0  0  0  0  0  0
   -5.4425    1.4194    0.0877 H   0  0  0  0  0  0  0  0  0  0  0  0
   -5.1125    2.9849   -0.6577 H   0  0  0  0  0  0  0  0  0  0  0  0
   -1.0165   -1.0453   -1.1033 H   0  0  0  0  0  0  0  0  0  0  0  0
    5.4737   -2.0034   -1.3126 H   0  0  0  0  0  0  0  0  0  0  0  0
    7.8739   -1.1968   -0.5390 H   0  0  0  0  0  0  0  0  0  0  0  0
    7.6990    0.9325    1.0077 H   0  0  0  0  0  0  0  0  0  0  0  0
  1  2  1  0
  2  3  1  0
  3  4  1  0
  4  5  1  0
  3  6  1  0
  6  7  2  0
  6  8  1  0
  8  9  1  0
  9 10  2  0
 10 11  1  0
 11 12  2  0
 12 13  1  0
 13 14  2  0
 14 15  1  0
 15 16  2  0
 16 17  1  0
 12 18  1  0
 18  9  1  0
 17 13  1  0
  1 19  1  0
  1 20  1  0
  1 21  1  0
  2 22  1  0
  2 23  1  0
  3 24  1  0
  4 25  1  0
  4 26  1  0
  5 27  1  0
  5 28  1  0
  5 29  1  0
  8 30  1  0
 14 31  1  0
 15 32  1  0
 16 33  1  0
M  END
