
     RDKit          3D

 32 32  0  0  0  0  0  0  0  0999 V2000
   -4.1776   -0.1218   -0.8819 C   0  0  0  0  0  0  0  0  0  0  0  0
   -3.1658   -1.2575   -0.7735 C   0  0  0  0  0  0  0  0  0  0  0  0
   -1.7192   -0.8094   -0.5386 C   0  0  0  0  0  0  0  0  0  0  0  0
   -1.2714    0.0364   -1.6678 N   0  0  0  0  0  0  0  0  0  0  0  0
    0.2727   -0.1865   -2.2852 S   0  0  0  0  0  6  0  0  0  0  0  0
    0.3937   -1.5781   -2.6604 O   0  0  0  0  0  0  0  0  0  0  0  0
    0.4973    0.8812   -3.2333 O   0  0  0  0  0  0  0  0  0  0  0  0
    1.3241    0.1012   -0.8845 C   0  0  0  0  0  0  0  0  0  0  0  0
    1.5809    1.4133   -0.4808 C   0  0  0  0  0  0  0  0  0  0  0  0
    2.4087    1.6442    0.6189 C   0  0  0  0  0  0  0  0  0  0  0  0
    2.9824    0.5713    1.3149 C   0  0  0  0  0  0  0  0  0  0  0  0
    3.9031    0.8265    2.4725 C   0  0  0  0  0  0  0  0  0  0  0  0
    2.7419   -0.7385    0.8777 C   0  0  0  0  0  0  0  0  0  0  0  0
    1.9142   -0.9771   -0.2206 C   0  0  0  0  0  0  0  0  0  0  0  0
   -1.5838   -0.0333    0.7632 C   0  0  0  0  0  0  0  0  0  0  0  0
   -1.4740    1.1802    0.8646 O   0  0  0  0  0  0  0  0  0  0  0  0
   -1.6004   -0.8160    1.8585 O   0  0  0  0  0  0  0  0  0  0  0  0
   -5.1796   -0.5310   -1.0477 H   0  0  0  0  0  0  0  0  0  0  0  0
   -3.9480    0.5427   -1.7202 H   0  0  0  0  0  0  0  0  0  0  0  0
   -4.2104    0.4748    0.0347 H   0  0  0  0  0  0  0  0  0  0  0  0
   -3.2124   -1.8507   -1.6954 H   0  0  0  0  0  0  0  0  0  0  0  0
   -3.4776   -1.9189    0.0442 H   0  0  0  0  0  0  0  0  0  0  0  0
   -1.0887   -1.7030   -0.4704 H   0  0  0  0  0  0  0  0  0  0  0  0
   -1.5352    1.0229   -1.6143 H   0  0  0  0  0  0  0  0  0  0  0  0
    1.1425    2.2554   -1.0117 H   0  0  0  0  0  0  0  0  0  0  0  0
    2.6067    2.6687    0.9284 H   0  0  0  0  0  0  0  0  0  0  0  0
    3.8616    0.0028    3.1930 H   0  0  0  0  0  0  0  0  0  0  0  0
    4.9320    0.9337    2.1156 H   0  0  0  0  0  0  0  0  0  0  0  0
    3.6157    1.7387    3.0059 H   0  0  0  0  0  0  0  0  0  0  0  0
    3.2055   -1.5808    1.3876 H   0  0  0  0  0  0  0  0  0  0  0  0
    1.7433   -1.9992   -0.5518 H   0  0  0  0  0  0  0  0  0  0  0  0
   -1.4823   -0.1921    2.6064 H   0  0  0  0  0  0  0  0  0  0  0  0
  1  2  1  0
  2  3  1  0
  3  4  1  0
  4  5  1  0
  5  6  2  0
  5  7  2  0
  5  8  1  0
  8  9  2  0
  9 10  1  0
 10 11  2  0
 11 12  1  0
 11 13  1  0
 13 14  2  0
  3 15  1  0
 15 16  2  0
 15 17  1  0
 14  8  1  0
  1 18  1  0
  1 19  1  0
  1 20  1  0
  2 21  1  0
  2 22  1  0
  3 23  1  0
  4 24  1  0
  9 25  1  0
 10 26  1  0
 12 27  1  0
 12 28  1  0
 12 29  1  0
 13 30  1  0
 14 31  1  0
 17 32  1  0
M  END
