
     RDKit          3D

 43 44  0  0  0  0  0  0  0  0999 V2000
    3.9829   -0.0393    1.3778 C   0  0  0  0  0  0  0  0  0  0  0  0
    2.9341   -0.7127    0.4992 C   0  0  0  0  0  0  0  0  0  0  0  0
    2.0857    0.2375   -0.3963 C   0  0  0  0  0  0  0  0  0  0  0  0
    1.3594    1.3207    0.4395 C   0  0  0  0  0  0  0  0  0  0  0  0
    0.4456    2.2299   -0.3798 C   0  0  0  0  0  0  0  0  0  0  0  0
    3.0240    0.9001   -1.3932 C   0  0  0  0  0  0  0  0  0  0  0  0
    3.6110    1.9600   -1.1884 O   0  0  0  0  0  0  0  0  0  0  0  0
    3.2159    0.2158   -2.5466 N   0  0  0  0  0  0  0  0  0  0  0  0
    2.1079   -0.2573   -3.1743 C   0  0  0  0  0  0  0  0  0  0  0  0
    2.0147   -0.1280   -4.3908 O   0  0  0  0  0  0  0  0  0  0  0  0
    1.1321   -0.8391   -2.4209 N   0  0  0  0  0  0  0  0  0  0  0  0
    1.0739   -0.6585   -1.1377 C   0  0  0  0  0  0  0  0  0  0  0  0
    0.1042   -1.3010   -0.3934 N   0  0  0  0  0  0  0  0  0  0  0  0
   -0.9828   -2.0828   -0.9658 C   0  0  0  0  0  0  0  0  0  0  0  0
   -2.2463   -1.2348   -1.1558 C   0  0  0  0  0  0  0  0  0  0  0  0
   -2.8288   -0.7008    0.1361 C   0  0  0  0  0  0  0  0  0  0  0  0
   -2.9794    0.6811    0.3252 C   0  0  0  0  0  0  0  0  0  0  0  0
   -3.5074    1.1857    1.5161 C   0  0  0  0  0  0  0  0  0  0  0  0
   -3.8965    0.3047    2.5181 C   0  0  0  0  0  0  0  0  0  0  0  0
   -4.4157    0.7519    3.6964 O   0  0  0  0  0  0  0  0  0  0  0  0
   -3.7723   -1.0675    2.3448 C   0  0  0  0  0  0  0  0  0  0  0  0
   -3.2455   -1.5711    1.1543 C   0  0  0  0  0  0  0  0  0  0  0  0
    3.5256    0.6343    2.1078 H   0  0  0  0  0  0  0  0  0  0  0  0
    4.5371   -0.7995    1.9387 H   0  0  0  0  0  0  0  0  0  0  0  0
    4.7086    0.5245    0.7854 H   0  0  0  0  0  0  0  0  0  0  0  0
    2.2745   -1.2902    1.1596 H   0  0  0  0  0  0  0  0  0  0  0  0
    3.4444   -1.4521   -0.1332 H   0  0  0  0  0  0  0  0  0  0  0  0
    2.0878    1.9645    0.9471 H   0  0  0  0  0  0  0  0  0  0  0  0
    0.7624    0.8535    1.2315 H   0  0  0  0  0  0  0  0  0  0  0  0
   -0.3131    1.6609   -0.9223 H   0  0  0  0  0  0  0  0  0  0  0  0
   -0.0719    2.9316    0.2826 H   0  0  0  0  0  0  0  0  0  0  0  0
    1.0124    2.8188   -1.1069 H   0  0  0  0  0  0  0  0  0  0  0  0
    3.8091    0.7102   -3.1979 H   0  0  0  0  0  0  0  0  0  0  0  0
   -0.0465   -1.0239    0.5721 H   0  0  0  0  0  0  0  0  0  0  0  0
   -1.1828   -2.9281   -0.2980 H   0  0  0  0  0  0  0  0  0  0  0  0
   -0.6880   -2.5212   -1.9260 H   0  0  0  0  0  0  0  0  0  0  0  0
   -3.0173   -1.8389   -1.6501 H   0  0  0  0  0  0  0  0  0  0  0  0
   -2.0225   -0.4029   -1.8355 H   0  0  0  0  0  0  0  0  0  0  0  0
   -2.6885    1.3778   -0.4581 H   0  0  0  0  0  0  0  0  0  0  0  0
   -3.6094    2.2593    1.6383 H   0  0  0  0  0  0  0  0  0  0  0  0
   -4.4757    1.7206    3.6612 H   0  0  0  0  0  0  0  0  0  0  0  0
   -4.0917   -1.7446    3.1322 H   0  0  0  0  0  0  0  0  0  0  0  0
   -3.1712   -2.6490    1.0306 H   0  0  0  0  0  0  0  0  0  0  0  0
  1  2  1  0
  2  3  1  0
  3  4  1  0
  4  5  1  0
  3  6  1  0
  6  7  2  0
  6  8  1  0
  8  9  1  0
  9 10  2  0
  9 11  1  0
 11 12  2  0
 12 13  1  0
 13 14  1  0
 14 15  1  0
 15 16  1  0
 16 17  2  0
 17 18  1  0
 18 19  2  0
 19 20  1  0
 19 21  1  0
 21 22  2  0
 12  3  1  0
 22 16  1  0
  1 23  1  0
  1 24  1  0
  1 25  1  0
  2 26  1  0
  2 27  1  0
  4 28  1  0
  4 29  1  0
  5 30  1  0
  5 31  1  0
  5 32  1  0
  8 33  1  0
 13 34  1  0
 14 35  1  0
 14 36  1  0
 15 37  1  0
 15 38  1  0
 17 39  1  0
 18 40  1  0
 20 41  1  0
 21 42  1  0
 22 43  1  0
M  END
