
     RDKit          3D

 38 39  0  0  0  0  0  0  0  0999 V2000
   -2.3373   -1.1451    2.6311 C   0  0  0  0  0  0  0  0  0  0  0  0
   -2.4892   -0.0161    1.6277 C   0  0  0  0  0  0  0  0  0  0  0  0
   -1.5472   -0.1255    0.4526 C   0  0  0  0  0  0  0  0  0  0  0  0
   -0.5430   -0.9525    0.4344 N   0  0  0  0  0  0  0  0  0  0  0  0
    0.1064   -0.6727   -0.8704 C   0  0  0  0  0  0  0  0  0  0  0  0
    1.6213   -0.6796   -0.7811 C   0  0  0  0  0  0  0  0  0  0  0  0
    2.3519   -1.5444   -1.6188 C   0  0  0  0  0  0  0  0  0  0  0  0
    3.7487   -1.5704   -1.5891 C   0  0  0  0  0  0  0  0  0  0  0  0
    4.4432   -0.7249   -0.7286 C   0  0  0  0  0  0  0  0  0  0  0  0
    3.7411    0.1404    0.1076 C   0  0  0  0  0  0  0  0  0  0  0  0
    2.3414    0.1497    0.0945 C   0  0  0  0  0  0  0  0  0  0  0  0
    1.6825    1.0398    0.9048 O   0  0  0  0  0  0  0  0  0  0  0  0
    1.7264    0.6023    2.2631 C   0  0  0  0  0  0  0  0  0  0  0  0
   -0.3976    0.6111   -1.3868 N   0  0  0  0  0  0  0  0  0  0  0  0
   -0.4809    0.5507   -2.8328 O   0  0  0  0  0  0  0  0  0  0  0  0
   -1.7360    0.7375   -0.7932 C   0  0  0  0  0  0  0  0  0  0  0  0
   -1.9905    2.2050   -0.4645 C   0  0  0  0  0  0  0  0  0  0  0  0
   -2.8828    0.1473   -1.6266 C   0  0  0  0  0  0  0  0  0  0  0  0
   -1.3329   -1.1543    3.0673 H   0  0  0  0  0  0  0  0  0  0  0  0
   -2.5086   -2.1178    2.1583 H   0  0  0  0  0  0  0  0  0  0  0  0
   -3.0590   -1.0291    3.4456 H   0  0  0  0  0  0  0  0  0  0  0  0
   -2.3012    0.9420    2.1237 H   0  0  0  0  0  0  0  0  0  0  0  0
   -3.5172   -0.0013    1.2527 H   0  0  0  0  0  0  0  0  0  0  0  0
   -0.2104   -1.4873   -1.5381 H   0  0  0  0  0  0  0  0  0  0  0  0
    1.8298   -2.2060   -2.3070 H   0  0  0  0  0  0  0  0  0  0  0  0
    4.2925   -2.2461   -2.2440 H   0  0  0  0  0  0  0  0  0  0  0  0
    5.5295   -0.7342   -0.7131 H   0  0  0  0  0  0  0  0  0  0  0  0
    4.2835    0.8155    0.7628 H   0  0  0  0  0  0  0  0  0  0  0  0
    2.6989    0.8348    2.7091 H   0  0  0  0  0  0  0  0  0  0  0  0
    1.5108   -0.4678    2.3625 H   0  0  0  0  0  0  0  0  0  0  0  0
    0.9603    1.1539    2.8164 H   0  0  0  0  0  0  0  0  0  0  0  0
    0.2070    1.1995   -3.0794 H   0  0  0  0  0  0  0  0  0  0  0  0
   -1.2347    2.5994    0.2253 H   0  0  0  0  0  0  0  0  0  0  0  0
   -1.9792    2.8238   -1.3690 H   0  0  0  0  0  0  0  0  0  0  0  0
   -2.9651    2.3408    0.0179 H   0  0  0  0  0  0  0  0  0  0  0  0
   -3.8328    0.2007   -1.0829 H   0  0  0  0  0  0  0  0  0  0  0  0
   -3.0178    0.6905   -2.5684 H   0  0  0  0  0  0  0  0  0  0  0  0
   -2.7121   -0.9093   -1.8636 H   0  0  0  0  0  0  0  0  0  0  0  0
  1  2  1  0
  2  3  1  0
  3  4  2  0
  4  5  1  0
  5  6  1  0
  6  7  2  0
  7  8  1  0
  8  9  2  0
  9 10  1  0
 10 11  2  0
 11 12  1  0
 12 13  1  0
  5 14  1  0
 14 15  1  0
 14 16  1  0
 16 17  1  0
 16 18  1  0
 16  3  1  0
 11  6  1  0
  1 19  1  0
  1 20  1  0
  1 21  1  0
  2 22  1  0
  2 23  1  0
  5 24  1  0
  7 25  1  0
  8 26  1  0
  9 27  1  0
 10 28  1  0
 13 29  1  0
 13 30  1  0
 13 31  1  0
 15 32  1  0
 17 33  1  0
 17 34  1  0
 17 35  1  0
 18 36  1  0
 18 37  1  0
 18 38  1  0
M  END
