
     RDKit          3D

 41 42  0  0  0  0  0  0  0  0999 V2000
   -4.5749   -0.7203   -2.1947 C   0  0  0  0  0  0  0  0  0  0  0  0
   -4.7241    0.0344   -0.8826 C   0  0  0  0  0  0  0  0  0  0  0  0
   -3.5405   -0.1833    0.0262 C   0  0  0  0  0  0  0  0  0  0  0  0
   -3.5415   -1.2406    0.9465 C   0  0  0  0  0  0  0  0  0  0  0  0
   -2.4406   -1.4630    1.7807 C   0  0  0  0  0  0  0  0  0  0  0  0
   -2.4609   -2.5694    2.7927 C   0  0  0  0  0  0  0  0  0  0  0  0
   -1.3408   -0.6009    1.6971 C   0  0  0  0  0  0  0  0  0  0  0  0
   -1.3181    0.4509    0.7776 C   0  0  0  0  0  0  0  0  0  0  0  0
   -0.1741    1.1986    0.8013 O   0  0  0  0  0  0  0  0  0  0  0  0
   -0.0472    2.2356   -0.1698 C   0  0  0  0  0  0  0  0  0  0  0  0
    1.3285    2.8987   -0.0309 C   0  0  0  0  0  0  0  0  0  0  0  0
    2.4185    1.9865   -0.3539 N   0  0  0  0  0  0  0  0  0  0  0  0
    3.1210    1.3346    0.6408 C   0  0  0  0  0  0  0  0  0  0  0  0
    2.9890    1.5645    1.8366 O   0  0  0  0  0  0  0  0  0  0  0  0
    4.0734    0.2888    0.2027 C   0  0  0  0  0  0  0  0  0  0  0  0
    4.3879   -0.7358    1.0901 C   0  0  0  0  0  0  0  0  0  0  0  0
    5.2430   -1.7505    0.8023 N   0  0  0  0  0  0  0  0  0  0  0  0
    5.8190   -1.7273   -0.4222 C   0  0  0  0  0  0  0  0  0  0  0  0
    5.5786   -0.7370   -1.3636 C   0  0  0  0  0  0  0  0  0  0  0  0
    6.4392   -0.7754   -3.0413 Br  0  0  0  0  0  0  0  0  0  0  0  0
    4.6943    0.2916   -1.0490 C   0  0  0  0  0  0  0  0  0  0  0  0
   -2.4176    0.6558   -0.0566 C   0  0  0  0  0  0  0  0  0  0  0  0
   -4.4896   -1.7990   -2.0249 H   0  0  0  0  0  0  0  0  0  0  0  0
   -3.6832   -0.3950   -2.7412 H   0  0  0  0  0  0  0  0  0  0  0  0
   -5.4465   -0.5453   -2.8331 H   0  0  0  0  0  0  0  0  0  0  0  0
   -4.8434    1.1063   -1.0824 H   0  0  0  0  0  0  0  0  0  0  0  0
   -5.6434   -0.2827   -0.3752 H   0  0  0  0  0  0  0  0  0  0  0  0
   -4.4082   -1.8957    1.0143 H   0  0  0  0  0  0  0  0  0  0  0  0
   -1.4501   -2.9469    2.9794 H   0  0  0  0  0  0  0  0  0  0  0  0
   -3.0613   -3.4133    2.4368 H   0  0  0  0  0  0  0  0  0  0  0  0
   -2.8833   -2.2070    3.7349 H   0  0  0  0  0  0  0  0  0  0  0  0
   -0.4837   -0.7449    2.3524 H   0  0  0  0  0  0  0  0  0  0  0  0
   -0.8196    2.9954   -0.0028 H   0  0  0  0  0  0  0  0  0  0  0  0
   -0.1446    1.8198   -1.1803 H   0  0  0  0  0  0  0  0  0  0  0  0
    1.4617    3.2811    0.9865 H   0  0  0  0  0  0  0  0  0  0  0  0
    1.4038    3.7364   -0.7314 H   0  0  0  0  0  0  0  0  0  0  0  0
    2.4466    1.6224   -1.2957 H   0  0  0  0  0  0  0  0  0  0  0  0
    3.9455   -0.7765    2.0835 H   0  0  0  0  0  0  0  0  0  0  0  0
    6.5002   -2.5500   -0.6215 H   0  0  0  0  0  0  0  0  0  0  0  0
    4.5197    1.0919   -1.7601 H   0  0  0  0  0  0  0  0  0  0  0  0
   -2.4329    1.4666   -0.7770 H   0  0  0  0  0  0  0  0  0  0  0  0
  1  2  1  0
  2  3  1  0
  3  4  2  0
  4  5  1  0
  5  6  1  0
  5  7  2  0
  7  8  1  0
  8  9  1  0
  9 10  1  0
 10 11  1  0
 11 12  1  0
 12 13  1  0
 13 14  2  0
 13 15  1  0
 15 16  2  0
 16 17  1  0
 17 18  2  0
 18 19  1  0
 19 20  1  0
 19 21  2  0
  8 22  2  0
 22  3  1  0
 21 15  1  0
  1 23  1  0
  1 24  1  0
  1 25  1  0
  2 26  1  0
  2 27  1  0
  4 28  1  0
  6 29  1  0
  6 30  1  0
  6 31  1  0
  7 32  1  0
 10 33  1  0
 10 34  1  0
 11 35  1  0
 11 36  1  0
 12 37  1  0
 16 38  1  0
 18 39  1  0
 21 40  1  0
 22 41  1  0
M  END
