
     RDKit          3D

 35 36  0  0  0  0  0  0  0  0999 V2000
   -5.0461    1.8599   -0.5061 C   0  0  0  0  0  0  0  0  0  0  0  0
   -5.0319    0.4054   -0.0620 C   0  0  0  0  0  0  0  0  0  0  0  0
   -3.6267   -0.1144    0.1084 C   0  0  0  0  0  0  0  0  0  0  0  0
   -2.9735   -0.0002    1.3423 C   0  0  0  0  0  0  0  0  0  0  0  0
   -1.6669   -0.4693    1.4970 C   0  0  0  0  0  0  0  0  0  0  0  0
   -0.9915   -1.0454    0.4153 C   0  0  0  0  0  0  0  0  0  0  0  0
    0.4012   -1.5290    0.6267 C   0  0  0  0  0  0  0  0  0  0  0  0
    0.7708   -1.8714    1.7442 O   0  0  0  0  0  0  0  0  0  0  0  0
    1.2222   -1.5249   -0.4813 N   0  0  0  0  0  0  0  0  0  0  0  0
    2.6301   -1.8351   -0.3745 C   0  0  0  0  0  0  0  0  0  0  0  0
    3.4535   -0.5733   -0.3074 C   0  0  0  0  0  0  0  0  0  0  0  0
    4.0683   -0.0547   -1.4565 C   0  0  0  0  0  0  0  0  0  0  0  0
    4.8112    1.1267   -1.3885 C   0  0  0  0  0  0  0  0  0  0  0  0
    4.9372    1.7981   -0.1738 C   0  0  0  0  0  0  0  0  0  0  0  0
    5.8506    3.2542   -0.0939 Cl  0  0  0  0  0  0  0  0  0  0  0  0
    4.3259    1.3001    0.9741 C   0  0  0  0  0  0  0  0  0  0  0  0
    3.5842    0.1189    0.9065 C   0  0  0  0  0  0  0  0  0  0  0  0
   -1.6423   -1.1706   -0.8178 C   0  0  0  0  0  0  0  0  0  0  0  0
   -2.9505   -0.7013   -0.9697 C   0  0  0  0  0  0  0  0  0  0  0  0
   -6.0766    2.2103   -0.6216 H   0  0  0  0  0  0  0  0  0  0  0  0
   -4.5488    2.5041    0.2270 H   0  0  0  0  0  0  0  0  0  0  0  0
   -4.5348    1.9872   -1.4664 H   0  0  0  0  0  0  0  0  0  0  0  0
   -5.5671   -0.2113   -0.7943 H   0  0  0  0  0  0  0  0  0  0  0  0
   -5.5812    0.3004    0.8816 H   0  0  0  0  0  0  0  0  0  0  0  0
   -3.4786    0.4524    2.1931 H   0  0  0  0  0  0  0  0  0  0  0  0
   -1.1747   -0.3806    2.4635 H   0  0  0  0  0  0  0  0  0  0  0  0
    0.9306   -1.0067   -1.2975 H   0  0  0  0  0  0  0  0  0  0  0  0
    2.9001   -2.4189   -1.2614 H   0  0  0  0  0  0  0  0  0  0  0  0
    2.8276   -2.4649    0.5002 H   0  0  0  0  0  0  0  0  0  0  0  0
    3.9754   -0.5677   -2.4112 H   0  0  0  0  0  0  0  0  0  0  0  0
    5.2869    1.5176   -2.2839 H   0  0  0  0  0  0  0  0  0  0  0  0
    4.4185    1.8237    1.9216 H   0  0  0  0  0  0  0  0  0  0  0  0
    3.1004   -0.2624    1.8056 H   0  0  0  0  0  0  0  0  0  0  0  0
   -1.1589   -1.6529   -1.6621 H   0  0  0  0  0  0  0  0  0  0  0  0
   -3.4445   -0.8042   -1.9339 H   0  0  0  0  0  0  0  0  0  0  0  0
  1  2  1  0
  2  3  1  0
  3  4  2  0
  4  5  1  0
  5  6  2  0
  6  7  1  0
  7  8  2  0
  7  9  1  0
  9 10  1  0
 10 11  1  0
 11 12  2  0
 12 13  1  0
 13 14  2  0
 14 15  1  0
 14 16  1  0
 16 17  2  0
  6 18  1  0
 18 19  2  0
 19  3  1  0
 17 11  1  0
  1 20  1  0
  1 21  1  0
  1 22  1  0
  2 23  1  0
  2 24  1  0
  4 25  1  0
  5 26  1  0
  9 27  1  0
 10 28  1  0
 10 29  1  0
 12 30  1  0
 13 31  1  0
 16 32  1  0
 17 33  1  0
 18 34  1  0
 19 35  1  0
M  END
