
     RDKit          3D

 35 37  0  0  0  0  0  0  0  0999 V2000
    5.7392    0.3808   -1.7333 C   0  0  0  0  0  0  0  0  0  0  0  0
    5.2502    0.4156   -0.2927 C   0  0  0  0  0  0  0  0  0  0  0  0
    3.7704    0.1484   -0.1940 C   0  0  0  0  0  0  0  0  0  0  0  0
    3.2965   -1.1362    0.0895 C   0  0  0  0  0  0  0  0  0  0  0  0
    1.9221   -1.3919    0.1686 C   0  0  0  0  0  0  0  0  0  0  0  0
    0.9977   -0.3694   -0.0418 C   0  0  0  0  0  0  0  0  0  0  0  0
   -0.4021   -0.5363    0.0202 N   0  0  0  0  0  0  0  0  0  0  0  0
   -1.1115   -1.7089    0.2488 C   0  0  0  0  0  0  0  0  0  0  0  0
   -0.6025   -2.8147    0.3992 O   0  0  0  0  0  0  0  0  0  0  0  0
   -2.5753   -1.5213    0.2882 C   0  0  0  0  0  0  0  0  0  0  0  0
   -3.4081   -2.5934    0.2232 N   0  0  0  0  0  0  0  0  0  0  0  0
   -4.7167   -2.1023    0.2931 O   0  0  0  0  0  0  0  0  0  0  0  0
   -4.6285   -0.7782    0.3955 C   0  0  0  0  0  0  0  0  0  0  0  0
   -3.3446   -0.3458    0.4037 C   0  0  0  0  0  0  0  0  0  0  0  0
   -3.2992    1.1171    0.5522 C   0  0  0  0  0  0  0  0  0  0  0  0
   -4.7944    1.4584    0.9291 C   0  0  0  0  0  0  0  0  0  0  0  0
   -5.6823    0.2228    0.5342 C   0  0  0  0  0  0  0  0  0  0  0  0
    1.4721    0.9165   -0.3304 C   0  0  0  0  0  0  0  0  0  0  0  0
    2.8446    1.1735   -0.4084 C   0  0  0  0  0  0  0  0  0  0  0  0
    5.2432    1.1461   -2.3415 H   0  0  0  0  0  0  0  0  0  0  0  0
    6.8174    0.5658   -1.7704 H   0  0  0  0  0  0  0  0  0  0  0  0
    5.5446   -0.5938   -2.1960 H   0  0  0  0  0  0  0  0  0  0  0  0
    5.8025   -0.3236    0.3012 H   0  0  0  0  0  0  0  0  0  0  0  0
    5.4748    1.3925    0.1541 H   0  0  0  0  0  0  0  0  0  0  0  0
    3.9925   -1.9560    0.2514 H   0  0  0  0  0  0  0  0  0  0  0  0
    1.6139   -2.4079    0.3942 H   0  0  0  0  0  0  0  0  0  0  0  0
   -0.9438    0.2933   -0.1656 H   0  0  0  0  0  0  0  0  0  0  0  0
   -3.0300    1.5996   -0.3932 H   0  0  0  0  0  0  0  0  0  0  0  0
   -2.6148    1.4473    1.3385 H   0  0  0  0  0  0  0  0  0  0  0  0
   -5.1367    2.3814    0.4497 H   0  0  0  0  0  0  0  0  0  0  0  0
   -4.8589    1.6101    2.0148 H   0  0  0  0  0  0  0  0  0  0  0  0
   -6.1923    0.4023   -0.4156 H   0  0  0  0  0  0  0  0  0  0  0  0
   -6.4103   -0.0109    1.3142 H   0  0  0  0  0  0  0  0  0  0  0  0
    0.7844    1.7399   -0.5028 H   0  0  0  0  0  0  0  0  0  0  0  0
    3.1859    2.1792   -0.6425 H   0  0  0  0  0  0  0  0  0  0  0  0
  1  2  1  0
  2  3  1  0
  3  4  2  0
  4  5  1  0
  5  6  2  0
  6  7  1  0
  7  8  1  0
  8  9  2  0
  8 10  1  0
 10 11  2  0
 11 12  1  0
 12 13  1  0
 13 14  2  0
 14 15  1  0
 15 16  1  0
 16 17  1  0
  6 18  1  0
 18 19  2  0
 19  3  1  0
 14 10  1  0
 17 13  1  0
  1 20  1  0
  1 21  1  0
  1 22  1  0
  2 23  1  0
  2 24  1  0
  4 25  1  0
  5 26  1  0
  7 27  1  0
 15 28  1  0
 15 29  1  0
 16 30  1  0
 16 31  1  0
 17 32  1  0
 17 33  1  0
 18 34  1  0
 19 35  1  0
M  END
