
     RDKit          3D

 42 45  0  0  0  0  0  0  0  0999 V2000
    5.6657   -0.9136   -0.7598 C   0  0  0  0  0  0  0  0  0  0  0  0
    4.6163   -0.7512    0.3305 C   0  0  0  0  0  0  0  0  0  0  0  0
    3.1940   -0.5326   -0.2158 C   0  0  0  0  0  0  0  0  0  0  0  0
    2.1798   -0.5011    0.9513 C   0  0  0  0  0  0  0  0  0  0  0  0
    0.7294   -0.4178    0.4494 C   0  0  0  0  0  0  0  0  0  0  0  0
    0.5664    0.6178   -0.6234 C   0  0  0  0  0  0  0  0  0  0  0  0
    1.6575    1.1288   -1.3019 C   0  0  0  0  0  0  0  0  0  0  0  0
    1.2223    2.3022   -2.4515 S   0  0  0  0  0  0  0  0  0  0  0  0
   -0.4315    2.1437   -2.0725 C   0  0  0  0  0  0  0  0  0  0  0  0
   -1.3437    2.8959   -2.7097 N   0  0  0  0  0  0  0  0  0  0  0  0
   -2.5839    2.6456   -2.2906 C   0  0  0  0  0  0  0  0  0  0  0  0
   -2.9729    1.7572   -1.3641 N   0  0  0  0  0  0  0  0  0  0  0  0
   -2.0338    0.9994   -0.7465 C   0  0  0  0  0  0  0  0  0  0  0  0
   -2.4351    0.0309    0.1953 N   0  0  0  0  0  0  0  0  0  0  0  0
   -2.7517   -1.2312   -0.5191 C   0  0  0  0  0  0  0  0  0  0  0  0
   -3.6697   -2.1094    0.3444 C   0  0  0  0  0  0  0  0  0  0  0  0
   -4.9451   -1.5040    0.6127 O   0  0  0  0  0  0  0  0  0  0  0  0
   -4.9016   -0.0660    0.5949 C   0  0  0  0  0  0  0  0  0  0  0  0
   -3.5498    0.4996    1.0552 C   0  0  0  0  0  0  0  0  0  0  0  0
   -0.6757    1.1940   -1.0902 C   0  0  0  0  0  0  0  0  0  0  0  0
    3.0900    0.7596   -1.0601 C   0  0  0  0  0  0  0  0  0  0  0  0
    5.3949   -1.7197   -1.4489 H   0  0  0  0  0  0  0  0  0  0  0  0
    6.6346   -1.1604   -0.3139 H   0  0  0  0  0  0  0  0  0  0  0  0
    5.7924    0.0079   -1.3356 H   0  0  0  0  0  0  0  0  0  0  0  0
    4.9019    0.0834    0.9823 H   0  0  0  0  0  0  0  0  0  0  0  0
    4.6265   -1.6546    0.9529 H   0  0  0  0  0  0  0  0  0  0  0  0
    2.9368   -1.3875   -0.8575 H   0  0  0  0  0  0  0  0  0  0  0  0
    2.3930    0.3630    1.5947 H   0  0  0  0  0  0  0  0  0  0  0  0
    2.2873   -1.3962    1.5757 H   0  0  0  0  0  0  0  0  0  0  0  0
    0.0753   -0.1986    1.3000 H   0  0  0  0  0  0  0  0  0  0  0  0
    0.4352   -1.3929    0.0439 H   0  0  0  0  0  0  0  0  0  0  0  0
   -3.3739    3.2263   -2.7566 H   0  0  0  0  0  0  0  0  0  0  0  0
   -3.2603   -1.0316   -1.4726 H   0  0  0  0  0  0  0  0  0  0  0  0
   -1.8248   -1.7734   -0.7346 H   0  0  0  0  0  0  0  0  0  0  0  0
   -3.8600   -3.0641   -0.1559 H   0  0  0  0  0  0  0  0  0  0  0  0
   -3.1960   -2.3315    1.3077 H   0  0  0  0  0  0  0  0  0  0  0  0
   -5.7006    0.2897    1.2532 H   0  0  0  0  0  0  0  0  0  0  0  0
   -5.1452    0.2641   -0.4210 H   0  0  0  0  0  0  0  0  0  0  0  0
   -3.5890    1.5934    1.1321 H   0  0  0  0  0  0  0  0  0  0  0  0
   -3.3435    0.1279    2.0668 H   0  0  0  0  0  0  0  0  0  0  0  0
    3.5821    1.5889   -0.5361 H   0  0  0  0  0  0  0  0  0  0  0  0
    3.6065    0.6180   -2.0168 H   0  0  0  0  0  0  0  0  0  0  0  0
  1  2  1  0
  2  3  1  0
  3  4  1  0
  4  5  1  0
  5  6  1  0
  6  7  2  0
  7  8  1  0
  8  9  1  0
  9 10  2  0
 10 11  1  0
 11 12  2  0
 12 13  1  0
 13 14  1  0
 14 15  1  0
 15 16  1  0
 16 17  1  0
 17 18  1  0
 18 19  1  0
 13 20  2  0
  7 21  1  0
 21  3  1  0
 20  6  1  0
 20  9  1  0
 19 14  1  0
  1 22  1  0
  1 23  1  0
  1 24  1  0
  2 25  1  0
  2 26  1  0
  3 27  1  0
  4 28  1  0
  4 29  1  0
  5 30  1  0
  5 31  1  0
 11 32  1  0
 15 33  1  0
 15 34  1  0
 16 35  1  0
 16 36  1  0
 18 37  1  0
 18 38  1  0
 19 39  1  0
 19 40  1  0
 21 41  1  0
 21 42  1  0
M  END
