
     RDKit          3D

 41 47  0  0  0  0  0  0  0  0999 V2000
    5.9727   -0.9166    0.6007 Si  0  0  0  0  0  4  0  0  0  0  0  0
    6.9893    0.4227    1.4391 C   0  0  0  0  0  0  0  0  0  0  0  0
    6.2100    1.4537    1.8133 C   0  0  0  0  0  0  0  0  0  0  0  0
    4.7963    1.3069    1.4953 C   0  0  0  0  0  0  0  0  0  0  0  0
    4.4600    0.1595    0.8694 C   0  0  0  0  0  0  0  0  0  0  0  0
    3.1380   -0.1680    0.4786 C   0  0  0  0  0  0  0  0  0  0  0  0
    2.6346   -1.2970   -0.1784 C   0  0  0  0  0  0  0  0  0  0  0  0
    1.2659   -1.0840   -0.3009 C   0  0  0  0  0  0  0  0  0  0  0  0
    0.2322   -1.8247   -0.9195 C   0  0  0  0  0  0  0  0  0  0  0  0
    0.4221   -2.9878   -1.6048 C   0  0  0  0  0  0  0  0  0  0  0  0
   -1.0690   -3.4376   -2.3293 S   0  0  0  0  0  0  0  0  0  0  0  0
   -1.8758   -2.0405   -1.7051 C   0  0  0  0  0  0  0  0  0  0  0  0
   -1.0889   -1.2878   -0.8587 C   0  0  0  0  0  0  0  0  0  0  0  0
   -1.5234   -0.0802   -0.1979 C   0  0  0  0  0  0  0  0  0  0  0  0
   -0.3968    0.6449    0.2818 C   0  0  0  0  0  0  0  0  0  0  0  0
   -0.5856    1.9239    0.7923 C   0  0  0  0  0  0  0  0  0  0  0  0
   -1.7839    2.5477    0.8640 N   0  0  0  0  0  0  0  0  0  0  0  0
   -2.8893    1.8820    0.5162 C   0  0  0  0  0  0  0  0  0  0  0  0
   -4.1048    2.6079    0.6828 C   0  0  0  0  0  0  0  0  0  0  0  0
   -5.4144    2.1184    0.4800 C   0  0  0  0  0  0  0  0  0  0  0  0
   -5.3502    0.7826    0.1455 C   0  0  0  0  0  0  0  0  0  0  0  0
   -6.4195   -0.0589    0.0042 C   0  0  0  0  0  0  0  0  0  0  0  0
   -5.9639   -1.3289   -0.1981 O   0  0  0  0  0  0  0  0  0  0  0  0
   -4.5967   -1.2797   -0.1891 C   0  0  0  0  0  0  0  0  0  0  0  0
   -4.1626    0.0166   -0.0586 C   0  0  0  0  0  0  0  0  0  0  0  0
   -2.8297    0.5232    0.0371 C   0  0  0  0  0  0  0  0  0  0  0  0
    0.9183    0.1201    0.2446 C   0  0  0  0  0  0  0  0  0  0  0  0
    2.0661    0.6900    0.7202 O   0  0  0  0  0  0  0  0  0  0  0  0
    5.9397   -2.1750    1.3879 H   0  0  0  0  0  0  0  0  0  0  0  0
    6.3251   -1.0782   -0.8324 H   0  0  0  0  0  0  0  0  0  0  0  0
    8.0547    0.3281    1.5774 H   0  0  0  0  0  0  0  0  0  0  0  0
    6.5781    2.3402    2.3154 H   0  0  0  0  0  0  0  0  0  0  0  0
    4.0927    2.0881    1.7597 H   0  0  0  0  0  0  0  0  0  0  0  0
    3.2078   -2.1457   -0.5221 H   0  0  0  0  0  0  0  0  0  0  0  0
    1.3181   -3.5717   -1.7619 H   0  0  0  0  0  0  0  0  0  0  0  0
   -2.8839   -1.8649   -2.0456 H   0  0  0  0  0  0  0  0  0  0  0  0
    0.2503    2.5212    1.1509 H   0  0  0  0  0  0  0  0  0  0  0  0
   -4.0108    3.6421    1.0237 H   0  0  0  0  0  0  0  0  0  0  0  0
   -6.3064    2.7044    0.6455 H   0  0  0  0  0  0  0  0  0  0  0  0
   -7.4935    0.0503    0.0590 H   0  0  0  0  0  0  0  0  0  0  0  0
   -4.1228   -2.2477   -0.2518 H   0  0  0  0  0  0  0  0  0  0  0  0
  1  2  1  0
  2  3  2  0
  3  4  1  0
  4  5  2  0
  5  6  1  0
  6  7  2  0
  7  8  1  0
  8  9  1  0
  9 10  2  0
 10 11  1  0
 11 12  1  0
 12 13  2  0
 13 14  1  0
 14 15  2  0
 15 16  1  0
 16 17  2  0
 17 18  1  0
 18 19  1  0
 19 20  2  0
 20 21  1  0
 21 22  2  0
 22 23  1  0
 23 24  1  0
 24 25  2  0
 25 26  1  0
 15 27  1  0
 27 28  1  0
  5  1  1  0
 28  6  1  0
 27  8  2  0
 13  9  1  0
 26 14  1  0
 26 18  2  0
 25 21  1  0
  1 29  1  0
  1 30  1  0
  2 31  1  0
  3 32  1  0
  4 33  1  0
  7 34  1  0
 10 35  1  0
 12 36  1  0
 16 37  1  0
 19 38  1  0
 20 39  1  0
 22 40  1  0
 24 41  1  0
M  END
