
     RDKit          3D

 43 45  0  0  0  0  0  0  0  0999 V2000
   -1.5629   -3.3488   -1.1775 C   0  0  0  0  0  0  0  0  0  0  0  0
   -2.5999   -2.6816   -0.2844 C   0  0  0  0  0  0  0  0  0  0  0  0
   -2.0830   -2.4328    1.1301 C   0  0  0  0  0  0  0  0  0  0  0  0
   -0.9309   -1.4445    1.1791 C   0  0  0  0  0  0  0  0  0  0  0  0
    0.1975   -1.8178    1.5036 O   0  0  0  0  0  0  0  0  0  0  0  0
   -1.1489   -0.0109    0.8006 C   0  0  0  0  0  0  0  0  0  0  0  0
   -2.4194    0.5605    0.9736 C   0  0  0  0  0  0  0  0  0  0  0  0
   -2.6458    1.8849    0.6115 C   0  0  0  0  0  0  0  0  0  0  0  0
   -1.6025    2.6590    0.1066 C   0  0  0  0  0  0  0  0  0  0  0  0
   -0.3365    2.0999   -0.0748 C   0  0  0  0  0  0  0  0  0  0  0  0
   -0.0849    0.7661    0.2736 C   0  0  0  0  0  0  0  0  0  0  0  0
    1.1920    0.1699    0.1057 N   0  0  0  0  0  0  0  0  0  0  0  0
    2.3551    0.7405   -0.3715 C   0  0  0  0  0  0  0  0  0  0  0  0
    2.4963    1.9049   -0.7305 O   0  0  0  0  0  0  0  0  0  0  0  0
    3.5497   -0.1489   -0.4193 C   0  0  0  0  0  0  0  0  0  0  0  0
    4.8240    0.4377   -0.3822 C   0  0  0  0  0  0  0  0  0  0  0  0
    5.9720   -0.3582   -0.4310 C   0  0  0  0  0  0  0  0  0  0  0  0
    5.8572   -1.7449   -0.5245 C   0  0  0  0  0  0  0  0  0  0  0  0
    4.5950   -2.3349   -0.5753 C   0  0  0  0  0  0  0  0  0  0  0  0
    3.4526   -1.5370   -0.5270 C   0  0  0  0  0  0  0  0  0  0  0  0
    2.2584   -2.1422   -0.6051 F   0  0  0  0  0  0  0  0  0  0  0  0
   -1.7502    3.9779   -0.2406 O   0  0  0  0  0  0  0  0  0  0  0  0
   -2.9495    4.5343    0.3084 C   0  0  0  0  0  0  0  0  0  0  0  0
   -4.1220    3.5934    0.0883 C   0  0  0  0  0  0  0  0  0  0  0  0
   -3.9199    2.3595    0.7890 O   0  0  0  0  0  0  0  0  0  0  0  0
   -1.2236   -4.2957   -0.7456 H   0  0  0  0  0  0  0  0  0  0  0  0
   -1.9938   -3.5605   -2.1613 H   0  0  0  0  0  0  0  0  0  0  0  0
   -0.6901   -2.7053   -1.3260 H   0  0  0  0  0  0  0  0  0  0  0  0
   -3.4808   -3.3316   -0.2261 H   0  0  0  0  0  0  0  0  0  0  0  0
   -2.9258   -1.7469   -0.7528 H   0  0  0  0  0  0  0  0  0  0  0  0
   -2.8875   -2.0930    1.7894 H   0  0  0  0  0  0  0  0  0  0  0  0
   -1.7301   -3.3777    1.5628 H   0  0  0  0  0  0  0  0  0  0  0  0
   -3.2499   -0.0017    1.3874 H   0  0  0  0  0  0  0  0  0  0  0  0
    0.4389    2.7402   -0.4825 H   0  0  0  0  0  0  0  0  0  0  0  0
    1.2542   -0.7973    0.4376 H   0  0  0  0  0  0  0  0  0  0  0  0
    4.9250    1.5196   -0.3126 H   0  0  0  0  0  0  0  0  0  0  0  0
    6.9549    0.1068   -0.3979 H   0  0  0  0  0  0  0  0  0  0  0  0
    6.7502   -2.3642   -0.5633 H   0  0  0  0  0  0  0  0  0  0  0  0
    4.4911   -3.4128   -0.6569 H   0  0  0  0  0  0  0  0  0  0  0  0
   -3.1316    5.4906   -0.1918 H   0  0  0  0  0  0  0  0  0  0  0  0
   -2.7868    4.7315    1.3753 H   0  0  0  0  0  0  0  0  0  0  0  0
   -5.0450    4.0427    0.4677 H   0  0  0  0  0  0  0  0  0  0  0  0
   -4.2627    3.3693   -0.9764 H   0  0  0  0  0  0  0  0  0  0  0  0
  1  2  1  0
  2  3  1  0
  3  4  1  0
  4  5  2  0
  4  6  1  0
  6  7  2  0
  7  8  1  0
  8  9  2  0
  9 10  1  0
 10 11  2  0
 11 12  1  0
 12 13  1  0
 13 14  2  0
 13 15  1  0
 15 16  2  0
 16 17  1  0
 17 18  2  0
 18 19  1  0
 19 20  2  0
 20 21  1  0
  9 22  1  0
 22 23  1  0
 23 24  1  0
 24 25  1  0
 11  6  1  0
 20 15  1  0
 25  8  1  0
  1 26  1  0
  1 27  1  0
  1 28  1  0
  2 29  1  0
  2 30  1  0
  3 31  1  0
  3 32  1  0
  7 33  1  0
 10 34  1  0
 12 35  1  0
 16 36  1  0
 17 37  1  0
 18 38  1  0
 19 39  1  0
 23 40  1  0
 23 41  1  0
 24 42  1  0
 24 43  1  0
M  END
