
     RDKit          3D

 39 41  0  0  0  0  0  0  0  0999 V2000
    5.7521    0.3988   -0.2244 C   0  0  0  0  0  0  0  0  0  0  0  0
    4.5227    0.2262    0.6524 C   0  0  0  0  0  0  0  0  0  0  0  0
    3.2395    0.5240   -0.1179 C   0  0  0  0  0  0  0  0  0  0  0  0
    2.0001    0.3570    0.7414 C   0  0  0  0  0  0  0  0  0  0  0  0
    2.0270    0.0149    1.9177 O   0  0  0  0  0  0  0  0  0  0  0  0
    0.8360    0.6382    0.0531 N   0  0  0  0  0  0  0  0  0  0  0  0
   -0.4736    0.4361    0.6584 C   0  0  0  0  0  0  0  0  0  0  0  0
   -1.5679    1.2854   -0.0307 C   0  0  0  0  0  0  0  0  0  0  0  0
   -2.8725    1.1413    0.7796 C   0  0  0  0  0  0  0  0  0  0  0  0
   -3.3151   -0.3338    0.8145 C   0  0  0  0  0  0  0  0  0  0  0  0
   -3.5531   -0.8232   -0.6242 C   0  0  0  0  0  0  0  0  0  0  0  0
   -2.2596   -0.6885   -1.4458 C   0  0  0  0  0  0  0  0  0  0  0  0
   -1.8296    0.7873   -1.4663 C   0  0  0  0  0  0  0  0  0  0  0  0
   -1.1530   -1.5322   -0.7909 C   0  0  0  0  0  0  0  0  0  0  0  0
   -0.8988   -1.0526    0.6518 C   0  0  0  0  0  0  0  0  0  0  0  0
   -2.2067   -1.1877    1.4566 C   0  0  0  0  0  0  0  0  0  0  0  0
    5.8256    1.4246   -0.5995 H   0  0  0  0  0  0  0  0  0  0  0  0
    6.6593    0.1805    0.3475 H   0  0  0  0  0  0  0  0  0  0  0  0
    5.7201   -0.2798   -1.0828 H   0  0  0  0  0  0  0  0  0  0  0  0
    4.4964   -0.7989    1.0408 H   0  0  0  0  0  0  0  0  0  0  0  0
    4.6009    0.8918    1.5203 H   0  0  0  0  0  0  0  0  0  0  0  0
    3.1547   -0.1533   -0.9760 H   0  0  0  0  0  0  0  0  0  0  0  0
    3.2599    1.5538   -0.4937 H   0  0  0  0  0  0  0  0  0  0  0  0
    0.8965    0.7287   -0.9521 H   0  0  0  0  0  0  0  0  0  0  0  0
   -0.3831    0.7663    1.7023 H   0  0  0  0  0  0  0  0  0  0  0  0
   -1.2665    2.3391   -0.0593 H   0  0  0  0  0  0  0  0  0  0  0  0
   -3.6615    1.7580    0.3317 H   0  0  0  0  0  0  0  0  0  0  0  0
   -2.7225    1.5111    1.8013 H   0  0  0  0  0  0  0  0  0  0  0  0
   -4.2391   -0.4291    1.3955 H   0  0  0  0  0  0  0  0  0  0  0  0
   -4.3562   -0.2393   -1.0905 H   0  0  0  0  0  0  0  0  0  0  0  0
   -3.8843   -1.8689   -0.6149 H   0  0  0  0  0  0  0  0  0  0  0  0
   -2.4349   -1.0375   -2.4695 H   0  0  0  0  0  0  0  0  0  0  0  0
   -2.6145    1.3965   -1.9321 H   0  0  0  0  0  0  0  0  0  0  0  0
   -0.9355    0.9089   -2.0879 H   0  0  0  0  0  0  0  0  0  0  0  0
   -1.4476   -2.5891   -0.7833 H   0  0  0  0  0  0  0  0  0  0  0  0
   -0.2320   -1.4683   -1.3824 H   0  0  0  0  0  0  0  0  0  0  0  0
   -0.1230   -1.6767    1.1101 H   0  0  0  0  0  0  0  0  0  0  0  0
   -2.5172   -2.2393    1.4919 H   0  0  0  0  0  0  0  0  0  0  0  0
   -2.0431   -0.8703    2.4937 H   0  0  0  0  0  0  0  0  0  0  0  0
  1  2  1  0
  2  3  1  0
  3  4  1  0
  4  5  2  0
  4  6  1  0
  6  7  1  0
  7  8  1  0
  8  9  1  0
  9 10  1  0
 10 11  1  0
 11 12  1  0
 12 13  1  0
 12 14  1  0
 14 15  1  0
 15 16  1  0
 15  7  1  0
 13  8  1  0
 16 10  1  0
  1 17  1  0
  1 18  1  0
  1 19  1  0
  2 20  1  0
  2 21  1  0
  3 22  1  0
  3 23  1  0
  6 24  1  0
  7 25  1  0
  8 26  1  0
  9 27  1  0
  9 28  1  0
 10 29  1  0
 11 30  1  0
 11 31  1  0
 12 32  1  0
 13 33  1  0
 13 34  1  0
 14 35  1  0
 14 36  1  0
 15 37  1  0
 16 38  1  0
 16 39  1  0
M  END
