
     RDKit          3D

 36 37  0  0  0  0  0  0  0  0999 V2000
    4.5043   -0.9039   -0.4596 C   0  0  0  0  0  0  0  0  0  0  0  0
    3.8745    0.2293   -1.2501 C   0  0  0  0  0  0  0  0  0  0  0  0
    2.7658    0.9874   -0.5097 C   0  0  0  0  0  0  0  0  0  0  0  0
    1.5168    0.1381   -0.1743 C   0  0  0  0  0  0  0  0  0  0  0  0
    1.5784   -0.4188    1.2552 C   0  0  0  0  0  0  0  0  0  0  0  0
    0.3165    0.9714   -0.3784 N   0  0  0  0  0  0  0  0  0  0  0  0
    0.0719    2.0421    0.5258 N   0  0  0  0  0  0  0  0  0  0  0  0
   -1.2824    2.1554    0.7906 C   0  0  0  0  0  0  0  0  0  0  0  0
   -1.8491    3.0828    1.3360 O   0  0  0  0  0  0  0  0  0  0  0  0
   -1.9169    0.9540    0.2556 C   0  0  0  0  0  0  0  0  0  0  0  0
   -3.2121    0.4747    0.3396 C   0  0  0  0  0  0  0  0  0  0  0  0
   -4.2927    1.2232    1.0481 C   0  0  0  0  0  0  0  0  0  0  0  0
   -3.4429   -0.7601   -0.2736 C   0  0  0  0  0  0  0  0  0  0  0  0
   -2.3872   -1.4302   -0.9147 C   0  0  0  0  0  0  0  0  0  0  0  0
   -2.6394   -2.7586   -1.5661 C   0  0  0  0  0  0  0  0  0  0  0  0
   -1.1218   -0.9392   -0.9857 N   0  0  0  0  0  0  0  0  0  0  0  0
   -0.9143    0.2562   -0.4066 C   0  0  0  0  0  0  0  0  0  0  0  0
    3.8030   -1.7319   -0.3233 H   0  0  0  0  0  0  0  0  0  0  0  0
    4.8422   -0.5610    0.5231 H   0  0  0  0  0  0  0  0  0  0  0  0
    5.3731   -1.2979   -0.9971 H   0  0  0  0  0  0  0  0  0  0  0  0
    4.6619    0.9470   -1.5110 H   0  0  0  0  0  0  0  0  0  0  0  0
    3.4845   -0.1628   -2.1969 H   0  0  0  0  0  0  0  0  0  0  0  0
    2.4771    1.8236   -1.1611 H   0  0  0  0  0  0  0  0  0  0  0  0
    3.1752    1.4432    0.4006 H   0  0  0  0  0  0  0  0  0  0  0  0
    1.4807   -0.7030   -0.8785 H   0  0  0  0  0  0  0  0  0  0  0  0
    2.4544   -1.0555    1.4010 H   0  0  0  0  0  0  0  0  0  0  0  0
    1.6279    0.3834    1.9997 H   0  0  0  0  0  0  0  0  0  0  0  0
    0.6958   -1.0253    1.4843 H   0  0  0  0  0  0  0  0  0  0  0  0
    0.6181    2.8910    0.4273 H   0  0  0  0  0  0  0  0  0  0  0  0
   -4.0329    1.3617    2.1024 H   0  0  0  0  0  0  0  0  0  0  0  0
   -4.4492    2.2005    0.5806 H   0  0  0  0  0  0  0  0  0  0  0  0
   -5.2437    0.6814    1.0094 H   0  0  0  0  0  0  0  0  0  0  0  0
   -4.4328   -1.2089   -0.2541 H   0  0  0  0  0  0  0  0  0  0  0  0
   -2.9915   -3.4821   -0.8243 H   0  0  0  0  0  0  0  0  0  0  0  0
   -1.7226   -3.1514   -2.0174 H   0  0  0  0  0  0  0  0  0  0  0  0
   -3.3910   -2.6557   -2.3549 H   0  0  0  0  0  0  0  0  0  0  0  0
  1  2  1  0
  2  3  1  0
  3  4  1  0
  4  5  1  0
  4  6  1  0
  6  7  1  0
  7  8  1  0
  8  9  2  0
  8 10  1  0
 10 11  2  0
 11 12  1  0
 11 13  1  0
 13 14  2  0
 14 15  1  0
 14 16  1  0
 16 17  2  0
 17  6  1  0
 17 10  1  0
  1 18  1  0
  1 19  1  0
  1 20  1  0
  2 21  1  0
  2 22  1  0
  3 23  1  0
  3 24  1  0
  4 25  1  0
  5 26  1  0
  5 27  1  0
  5 28  1  0
  7 29  1  0
 12 30  1  0
 12 31  1  0
 12 32  1  0
 13 33  1  0
 15 34  1  0
 15 35  1  0
 15 36  1  0
M  END
