
     RDKit          3D

 27 27  0  0  0  0  0  0  0  0999 V2000
    3.2452   -0.9640   -0.1134 C   0  0  0  0  0  0  0  0  0  0  0  0
    2.6236    0.2730    0.5189 C   0  0  0  0  0  0  0  0  0  0  0  0
    1.1311    0.1093    0.8305 C   0  0  0  0  0  0  0  0  0  0  0  0
    0.1856    0.6512   -0.2598 C   0  0  0  0  0  0  0  0  0  0  0  0
    0.2975   -0.0552   -1.6091 C   0  0  0  0  0  0  0  0  0  0  0  0
   -1.2006    0.6413    0.2209 N   0  0  0  0  0  0  0  0  0  0  0  0
   -1.9937    1.7429   -0.1241 N   0  0  0  0  0  0  0  0  0  0  0  0
   -3.3048    1.4128    0.1583 C   0  0  0  0  0  0  0  0  0  0  0  0
   -4.2671    2.1567    0.2004 O   0  0  0  0  0  0  0  0  0  0  0  0
   -3.3299   -0.0305    0.4498 C   0  0  0  0  0  0  0  0  0  0  0  0
   -2.0466   -0.4311    0.4736 C   0  0  0  0  0  0  0  0  0  0  0  0
   -1.6702   -1.7240    0.7107 N   0  0  0  0  0  0  0  0  0  0  0  0
    2.7919   -1.2053   -1.0772 H   0  0  0  0  0  0  0  0  0  0  0  0
    3.1352   -1.8339    0.5422 H   0  0  0  0  0  0  0  0  0  0  0  0
    4.3154   -0.8026   -0.2783 H   0  0  0  0  0  0  0  0  0  0  0  0
    3.1532    0.4606    1.4613 H   0  0  0  0  0  0  0  0  0  0  0  0
    2.7974    1.1487   -0.1163 H   0  0  0  0  0  0  0  0  0  0  0  0
    0.9140   -0.9379    1.0652 H   0  0  0  0  0  0  0  0  0  0  0  0
    0.9232    0.6698    1.7526 H   0  0  0  0  0  0  0  0  0  0  0  0
    0.4699    1.6999   -0.4259 H   0  0  0  0  0  0  0  0  0  0  0  0
   -0.4850    0.2845   -2.2969 H   0  0  0  0  0  0  0  0  0  0  0  0
    1.2593    0.1623   -2.0834 H   0  0  0  0  0  0  0  0  0  0  0  0
    0.2063   -1.1411   -1.5128 H   0  0  0  0  0  0  0  0  0  0  0  0
   -1.6852    2.6810    0.1008 H   0  0  0  0  0  0  0  0  0  0  0  0
   -4.2283   -0.5893    0.6245 H   0  0  0  0  0  0  0  0  0  0  0  0
   -2.4165   -2.3971    0.5635 H   0  0  0  0  0  0  0  0  0  0  0  0
   -0.8208   -1.9820    0.2241 H   0  0  0  0  0  0  0  0  0  0  0  0
  1  2  1  0
  2  3  1  0
  3  4  1  0
  4  5  1  0
  4  6  1  0
  6  7  1  0
  7  8  1  0
  8  9  2  0
  8 10  1  0
 10 11  2  0
 11 12  1  0
 11  6  1  0
  1 13  1  0
  1 14  1  0
  1 15  1  0
  2 16  1  0
  2 17  1  0
  3 18  1  0
  3 19  1  0
  4 20  1  0
  5 21  1  0
  5 22  1  0
  5 23  1  0
  7 24  1  0
 10 25  1  0
 12 26  1  0
 12 27  1  0
M  END
