
     RDKit          3D

 27 27  0  0  0  0  0  0  0  0999 V2000
   -2.5281    3.0589    2.0667 C   0  0  0  0  0  0  0  0  0  0  0  0
   -2.7234    1.6402    2.5783 C   0  0  0  0  0  0  0  0  0  0  0  0
   -1.6918    0.6512    2.0361 C   0  0  0  0  0  0  0  0  0  0  0  0
   -1.8051    0.4214    0.5305 C   0  0  0  0  0  0  0  0  0  0  0  0
   -0.8690   -0.5910    0.0839 N   0  0  0  0  0  4  0  0  0  0  0  0
    0.3908   -0.3048   -0.3592 C   0  0  0  0  0  0  0  0  0  0  0  0
    0.9305   -1.5171   -0.7526 C   0  0  0  0  0  0  0  0  0  0  0  0
    2.1179   -1.8657   -1.3041 N   0  0  0  0  0  0  0  0  0  0  0  0
    2.7200   -0.9615   -2.0171 C   0  0  0  0  0  0  0  0  0  0  0  0
    2.4454    0.2100   -2.3240 O   0  0  0  0  0  1  0  0  0  0  0  0
    3.9142   -1.2356   -2.6026 O   0  0  0  0  0  0  0  0  0  0  0  0
    4.4486   -2.5493   -2.4221 C   0  0  0  0  0  0  0  0  0  0  0  0
   -0.0340   -2.4806   -0.4664 O   0  0  0  0  0  0  0  0  0  0  0  0
   -1.1824   -1.8647    0.0557 N   0  0  0  0  0  0  0  0  0  0  0  0
   -2.7010    3.1241    0.9885 H   0  0  0  0  0  0  0  0  0  0  0  0
   -3.2355    3.7354    2.5567 H   0  0  0  0  0  0  0  0  0  0  0  0
   -1.5152    3.4157    2.2773 H   0  0  0  0  0  0  0  0  0  0  0  0
   -2.6536    1.6522    3.6727 H   0  0  0  0  0  0  0  0  0  0  0  0
   -3.7350    1.2991    2.3299 H   0  0  0  0  0  0  0  0  0  0  0  0
   -0.6800    0.9948    2.2829 H   0  0  0  0  0  0  0  0  0  0  0  0
   -1.8243   -0.3071    2.5530 H   0  0  0  0  0  0  0  0  0  0  0  0
   -1.6100    1.3450   -0.0258 H   0  0  0  0  0  0  0  0  0  0  0  0
   -2.8190    0.0944    0.2692 H   0  0  0  0  0  0  0  0  0  0  0  0
    0.8278    0.6810   -0.4046 H   0  0  0  0  0  0  0  0  0  0  0  0
    5.4045   -2.5999   -2.9508 H   0  0  0  0  0  0  0  0  0  0  0  0
    4.6313   -2.7475   -1.3614 H   0  0  0  0  0  0  0  0  0  0  0  0
    3.7765   -3.2986   -2.8516 H   0  0  0  0  0  0  0  0  0  0  0  0
  1  2  1  0
  2  3  1  0
  3  4  1  0
  4  5  1  0
  5  6  1  0
  6  7  2  0
  7  8  1  0
  8  9  2  3
  9 10  1  0
  9 11  1  0
 11 12  1  0
  7 13  1  0
 13 14  1  0
 14  5  2  0
  1 15  1  0
  1 16  1  0
  1 17  1  0
  2 18  1  0
  2 19  1  0
  3 20  1  0
  3 21  1  0
  4 22  1  0
  4 23  1  0
  6 24  1  0
 12 25  1  0
 12 26  1  0
 12 27  1  0
M  CHG  2   5   1  10  -1
M  END
