
     RDKit          3D

 32 32  0  0  0  0  0  0  0  0999 V2000
   -4.5385   -0.1621   -0.6972 C   0  0  0  0  0  0  0  0  0  0  0  0
   -4.0398    1.2702   -0.5657 C   0  0  0  0  0  0  0  0  0  0  0  0
   -3.1320    1.4834    0.6493 C   0  0  0  0  0  0  0  0  0  0  0  0
   -1.8057    0.7695    0.5497 C   0  0  0  0  0  0  0  0  0  0  0  0
   -0.8121    1.2324   -0.3224 C   0  0  0  0  0  0  0  0  0  0  0  0
    0.4168    0.5710   -0.4220 C   0  0  0  0  0  0  0  0  0  0  0  0
    0.6664   -0.5688    0.3494 C   0  0  0  0  0  0  0  0  0  0  0  0
    1.9579   -1.3181    0.2907 C   0  0  0  0  0  0  0  0  0  0  0  0
    2.2247   -2.1355    1.1710 O   0  0  0  0  0  0  0  0  0  0  0  0
    2.9357   -1.0613   -0.8381 C   0  0  0  0  0  0  0  0  0  0  0  0
    3.9788   -0.0409   -0.4175 C   0  0  0  0  0  0  0  0  0  0  0  0
    5.0194   -0.6804    0.4572 C   0  0  0  0  0  0  0  0  0  0  0  0
    5.8019   -1.5536    0.1226 O   0  0  0  0  0  0  0  0  0  0  0  0
    5.0207   -0.1853    1.7076 O   0  0  0  0  0  0  0  0  0  0  0  0
   -0.3228   -1.0279    1.2287 C   0  0  0  0  0  0  0  0  0  0  0  0
   -1.5493   -0.3660    1.3264 C   0  0  0  0  0  0  0  0  0  0  0  0
   -5.0549   -0.4834    0.2130 H   0  0  0  0  0  0  0  0  0  0  0  0
   -3.7160   -0.8568   -0.8922 H   0  0  0  0  0  0  0  0  0  0  0  0
   -5.2436   -0.2390   -1.5311 H   0  0  0  0  0  0  0  0  0  0  0  0
   -3.5248    1.5601   -1.4890 H   0  0  0  0  0  0  0  0  0  0  0  0
   -4.9097    1.9308   -0.4678 H   0  0  0  0  0  0  0  0  0  0  0  0
   -3.6578    1.1779    1.5628 H   0  0  0  0  0  0  0  0  0  0  0  0
   -2.9345    2.5569    0.7659 H   0  0  0  0  0  0  0  0  0  0  0  0
   -0.9892    2.1189   -0.9287 H   0  0  0  0  0  0  0  0  0  0  0  0
    1.1599    0.9789   -1.0996 H   0  0  0  0  0  0  0  0  0  0  0  0
    3.3908   -2.0217   -1.1099 H   0  0  0  0  0  0  0  0  0  0  0  0
    2.4015   -0.7272   -1.7327 H   0  0  0  0  0  0  0  0  0  0  0  0
    4.4990    0.3609   -1.2943 H   0  0  0  0  0  0  0  0  0  0  0  0
    3.5274    0.8106    0.1039 H   0  0  0  0  0  0  0  0  0  0  0  0
    5.6760   -0.7385    2.1826 H   0  0  0  0  0  0  0  0  0  0  0  0
   -0.1442   -1.9082    1.8441 H   0  0  0  0  0  0  0  0  0  0  0  0
   -2.3020   -0.7467    2.0138 H   0  0  0  0  0  0  0  0  0  0  0  0
  1  2  1  0
  2  3  1  0
  3  4  1  0
  4  5  2  0
  5  6  1  0
  6  7  2  0
  7  8  1  0
  8  9  2  0
  8 10  1  0
 10 11  1  0
 11 12  1  0
 12 13  2  0
 12 14  1  0
  7 15  1  0
 15 16  2  0
 16  4  1  0
  1 17  1  0
  1 18  1  0
  1 19  1  0
  2 20  1  0
  2 21  1  0
  3 22  1  0
  3 23  1  0
  5 24  1  0
  6 25  1  0
 10 26  1  0
 10 27  1  0
 11 28  1  0
 11 29  1  0
 14 30  1  0
 15 31  1  0
 16 32  1  0
M  END
