
     RDKit          3D

 36 37  0  0  0  0  0  0  0  0999 V2000
   -2.7979    3.7864   -1.1784 C   0  0  0  0  0  0  0  0  0  0  0  0
   -1.4719    3.0808   -0.9411 C   0  0  0  0  0  0  0  0  0  0  0  0
   -1.6657    1.7655   -0.1852 C   0  0  0  0  0  0  0  0  0  0  0  0
   -0.3756    1.0403    0.0494 C   0  0  0  0  0  0  0  0  0  0  0  0
    0.8378    1.5230   -0.1693 N   0  0  0  0  0  0  0  0  0  0  0  0
    1.7073    0.5227    0.1818 C   0  0  0  0  0  0  0  0  0  0  0  0
    3.1566    0.4987    0.1403 C   0  0  0  0  0  0  0  0  0  0  0  0
    3.8368    1.4446   -0.2519 O   0  0  0  0  0  0  0  0  0  0  0  0
    3.7083   -0.7197    0.5914 N   0  0  0  0  0  0  0  0  0  0  0  0
    5.1536   -0.8059    0.5704 C   0  0  0  0  0  0  0  0  0  0  0  0
    2.9804   -1.8359    1.0224 C   0  0  0  0  0  0  0  0  0  0  0  0
    3.4935   -2.8941    1.3872 O   0  0  0  0  0  0  0  0  0  0  0  0
    1.6043   -1.7330    1.0332 N   0  0  0  0  0  0  0  0  0  0  0  0
    1.0185   -0.5726    0.6195 C   0  0  0  0  0  0  0  0  0  0  0  0
   -0.3051   -0.2528    0.5424 N   0  0  0  0  0  0  0  0  0  0  0  0
   -1.4208   -1.0996    0.9193 C   0  0  0  0  0  0  0  0  0  0  0  0
   -1.8650   -2.0085   -0.2236 C   0  0  0  0  0  0  0  0  0  0  0  0
   -3.0394   -2.8811    0.1876 C   0  0  0  0  0  0  0  0  0  0  0  0
   -3.4730    3.1632   -1.7736 H   0  0  0  0  0  0  0  0  0  0  0  0
   -2.6367    4.7243   -1.7189 H   0  0  0  0  0  0  0  0  0  0  0  0
   -3.2924    4.0211   -0.2304 H   0  0  0  0  0  0  0  0  0  0  0  0
   -0.9877    2.8921   -1.9071 H   0  0  0  0  0  0  0  0  0  0  0  0
   -0.8086    3.7470   -0.3761 H   0  0  0  0  0  0  0  0  0  0  0  0
   -2.1382    1.9680    0.7835 H   0  0  0  0  0  0  0  0  0  0  0  0
   -2.3450    1.1212   -0.7559 H   0  0  0  0  0  0  0  0  0  0  0  0
    5.5731    0.0344    1.1334 H   0  0  0  0  0  0  0  0  0  0  0  0
    5.4950   -0.7299   -0.4672 H   0  0  0  0  0  0  0  0  0  0  0  0
    5.5248   -1.7397    0.9997 H   0  0  0  0  0  0  0  0  0  0  0  0
    1.0832   -2.5415    1.3444 H   0  0  0  0  0  0  0  0  0  0  0  0
   -1.1086   -1.6901    1.7885 H   0  0  0  0  0  0  0  0  0  0  0  0
   -2.2418   -0.4557    1.2521 H   0  0  0  0  0  0  0  0  0  0  0  0
   -2.1491   -1.4078   -1.0957 H   0  0  0  0  0  0  0  0  0  0  0  0
   -1.0333   -2.6490   -0.5407 H   0  0  0  0  0  0  0  0  0  0  0  0
   -3.9008   -2.2694    0.4744 H   0  0  0  0  0  0  0  0  0  0  0  0
   -3.3421   -3.5257   -0.6435 H   0  0  0  0  0  0  0  0  0  0  0  0
   -2.7744   -3.5212    1.0351 H   0  0  0  0  0  0  0  0  0  0  0  0
  1  2  1  0
  2  3  1  0
  3  4  1  0
  4  5  2  0
  5  6  1  0
  6  7  1  0
  7  8  2  0
  7  9  1  0
  9 10  1  0
  9 11  1  0
 11 12  2  0
 11 13  1  0
 13 14  1  0
 14 15  1  0
 15 16  1  0
 16 17  1  0
 17 18  1  0
 15  4  1  0
 14  6  2  0
  1 19  1  0
  1 20  1  0
  1 21  1  0
  2 22  1  0
  2 23  1  0
  3 24  1  0
  3 25  1  0
 10 26  1  0
 10 27  1  0
 10 28  1  0
 13 29  1  0
 16 30  1  0
 16 31  1  0
 17 32  1  0
 17 33  1  0
 18 34  1  0
 18 35  1  0
 18 36  1  0
M  END
