
     RDKit          3D

 32 32  0  0  0  0  0  0  0  0999 V2000
    4.0854   -0.7911   -1.1454 C   0  0  0  0  0  0  0  0  0  0  0  0
    4.1443   -0.3323    0.3035 C   0  0  0  0  0  0  0  0  0  0  0  0
    2.7973   -0.4142    1.0230 C   0  0  0  0  0  0  0  0  0  0  0  0
    1.7588    0.5607    0.4738 C   0  0  0  0  0  0  0  0  0  0  0  0
    0.4689    0.4806    1.2694 C   0  0  0  0  0  0  0  0  0  0  0  0
    0.4486    0.7030    2.4813 O   0  0  0  0  0  0  0  0  0  0  0  0
   -0.7913    0.1748    0.5354 C   0  0  0  0  0  0  0  0  0  0  0  0
   -1.8907    0.9501    0.6759 C   0  0  0  0  0  0  0  0  0  0  0  0
   -1.9825    2.1990    1.5118 C   0  0  0  0  0  0  0  0  0  0  0  0
   -3.1160    0.6052   -0.0357 C   0  0  0  0  0  0  0  0  0  0  0  0
   -3.1700   -0.4588   -0.8507 C   0  0  0  0  0  0  0  0  0  0  0  0
   -4.3955   -0.8660   -1.6085 C   0  0  0  0  0  0  0  0  0  0  0  0
   -2.0488   -1.2349   -1.0092 N   0  0  0  0  0  0  0  0  0  0  0  0
   -0.8524   -1.0109   -0.3722 C   0  0  0  0  0  0  0  0  0  0  0  0
    0.1074   -1.7540   -0.5503 O   0  0  0  0  0  0  0  0  0  0  0  0
    3.6706   -1.8012   -1.2214 H   0  0  0  0  0  0  0  0  0  0  0  0
    3.4747   -0.1193   -1.7554 H   0  0  0  0  0  0  0  0  0  0  0  0
    5.0919   -0.8050   -1.5758 H   0  0  0  0  0  0  0  0  0  0  0  0
    4.5303    0.6927    0.3474 H   0  0  0  0  0  0  0  0  0  0  0  0
    4.8626   -0.9647    0.8389 H   0  0  0  0  0  0  0  0  0  0  0  0
    2.4120   -1.4398    0.9733 H   0  0  0  0  0  0  0  0  0  0  0  0
    2.9630   -0.2037    2.0872 H   0  0  0  0  0  0  0  0  0  0  0  0
    1.5609    0.3758   -0.5857 H   0  0  0  0  0  0  0  0  0  0  0  0
    2.1222    1.5926    0.5476 H   0  0  0  0  0  0  0  0  0  0  0  0
   -2.5572    2.0039    2.4234 H   0  0  0  0  0  0  0  0  0  0  0  0
   -2.4836    2.9998    0.9554 H   0  0  0  0  0  0  0  0  0  0  0  0
   -1.0066    2.5981    1.8001 H   0  0  0  0  0  0  0  0  0  0  0  0
   -3.9913    1.2324    0.1136 H   0  0  0  0  0  0  0  0  0  0  0  0
   -4.7050   -1.8760   -1.3200 H   0  0  0  0  0  0  0  0  0  0  0  0
   -4.1985   -0.8580   -2.6856 H   0  0  0  0  0  0  0  0  0  0  0  0
   -5.2364   -0.1911   -1.4173 H   0  0  0  0  0  0  0  0  0  0  0  0
   -2.0730   -2.0479   -1.6134 H   0  0  0  0  0  0  0  0  0  0  0  0
  1  2  1  0
  2  3  1  0
  3  4  1  0
  4  5  1  0
  5  6  2  0
  5  7  1  0
  7  8  2  0
  8  9  1  0
  8 10  1  0
 10 11  2  0
 11 12  1  0
 11 13  1  0
 13 14  1  0
 14 15  2  0
 14  7  1  0
  1 16  1  0
  1 17  1  0
  1 18  1  0
  2 19  1  0
  2 20  1  0
  3 21  1  0
  3 22  1  0
  4 23  1  0
  4 24  1  0
  9 25  1  0
  9 26  1  0
  9 27  1  0
 10 28  1  0
 12 29  1  0
 12 30  1  0
 12 31  1  0
 13 32  1  0
M  END
