
     RDKit          3D

 47 54  0  0  0  0  0  0  0  0999 V2000
    6.3721    1.5248   -0.6736 Si  0  0  0  0  0  4  0  0  0  0  0  0
    7.8495    0.3946   -0.3926 C   0  0  0  0  0  0  0  0  0  0  0  0
    7.4636   -0.7908    0.1131 C   0  0  0  0  0  0  0  0  0  0  0  0
    6.0308   -0.9383    0.3291 C   0  0  0  0  0  0  0  0  0  0  0  0
    5.2809    0.1327   -0.0069 C   0  0  0  0  0  0  0  0  0  0  0  0
    3.8706    0.2357    0.1120 C   0  0  0  0  0  0  0  0  0  0  0  0
    3.0995    1.3175    0.4957 C   0  0  0  0  0  0  0  0  0  0  0  0
    1.7248    1.0022    0.4594 C   0  0  0  0  0  0  0  0  0  0  0  0
    0.6965    1.9066    0.8515 C   0  0  0  0  0  0  0  0  0  0  0  0
    0.9964    3.1069    1.3317 N   0  0  0  0  0  0  0  0  0  0  0  0
   -0.4965    3.7178    1.7475 S   0  0  0  0  0  0  0  0  0  0  0  0
   -1.4650    2.4505    1.2816 N   0  0  0  0  0  0  0  0  0  0  0  0
   -0.6902    1.4860    0.7348 C   0  0  0  0  0  0  0  0  0  0  0  0
   -1.1354    0.2205    0.1968 C   0  0  0  0  0  0  0  0  0  0  0  0
    0.0035   -0.6835    0.0202 C   0  0  0  0  0  0  0  0  0  0  0  0
   -0.4513   -1.9992   -0.1762 C   0  0  0  0  0  0  0  0  0  0  0  0
    0.2870   -3.1550   -0.3081 C   0  0  0  0  0  0  0  0  0  0  0  0
   -0.5826   -4.2159   -0.4162 N   0  0  0  0  0  0  0  0  0  0  0  0
   -1.8747   -3.7653   -0.3371 C   0  0  0  0  0  0  0  0  0  0  0  0
   -1.8253   -2.3973   -0.1882 C   0  0  0  0  0  0  0  0  0  0  0  0
   -2.9381   -1.5335   -0.0939 C   0  0  0  0  0  0  0  0  0  0  0  0
   -4.2683   -2.0017   -0.0772 C   0  0  0  0  0  0  0  0  0  0  0  0
   -5.3178   -1.1019   -0.0627 C   0  0  0  0  0  0  0  0  0  0  0  0
   -5.0676    0.2608   -0.1854 C   0  0  0  0  0  0  0  0  0  0  0  0
   -6.1675    1.1277   -0.3094 C   0  0  0  0  0  0  0  0  0  0  0  0
   -5.9898    2.4814   -0.5667 C   0  0  0  0  0  0  0  0  0  0  0  0
   -4.7075    2.9705   -0.7356 C   0  0  0  0  0  0  0  0  0  0  0  0
   -3.6100    2.1133   -0.5912 C   0  0  0  0  0  0  0  0  0  0  0  0
   -3.7272    0.7472   -0.2363 C   0  0  0  0  0  0  0  0  0  0  0  0
   -2.5913   -0.1492   -0.0321 C   0  0  0  0  0  0  0  0  0  0  0  0
    1.3692   -0.2746    0.0804 C   0  0  0  0  0  0  0  0  0  0  0  0
    2.8516   -1.1089   -0.2524 S   0  0  0  0  0  0  0  0  0  0  0  0
    6.4034    2.7122    0.2176 H   0  0  0  0  0  0  0  0  0  0  0  0
    6.1544    1.8008   -2.1160 H   0  0  0  0  0  0  0  0  0  0  0  0
    8.8550    0.7073   -0.6253 H   0  0  0  0  0  0  0  0  0  0  0  0
    8.1474   -1.5958    0.3538 H   0  0  0  0  0  0  0  0  0  0  0  0
    5.6407   -1.8601    0.7441 H   0  0  0  0  0  0  0  0  0  0  0  0
    3.5082    2.2749    0.7988 H   0  0  0  0  0  0  0  0  0  0  0  0
    1.3452   -3.3626   -0.3276 H   0  0  0  0  0  0  0  0  0  0  0  0
   -0.3068   -5.1835   -0.5261 H   0  0  0  0  0  0  0  0  0  0  0  0
   -2.6956   -4.4655   -0.4037 H   0  0  0  0  0  0  0  0  0  0  0  0
   -4.4918   -3.0639   -0.0685 H   0  0  0  0  0  0  0  0  0  0  0  0
   -6.3354   -1.4841   -0.0320 H   0  0  0  0  0  0  0  0  0  0  0  0
   -7.1836    0.7449   -0.2349 H   0  0  0  0  0  0  0  0  0  0  0  0
   -6.8482    3.1381   -0.6723 H   0  0  0  0  0  0  0  0  0  0  0  0
   -4.5474    4.0149   -0.9888 H   0  0  0  0  0  0  0  0  0  0  0  0
   -2.6358    2.5408   -0.8095 H   0  0  0  0  0  0  0  0  0  0  0  0
  1  2  1  0
  2  3  2  0
  3  4  1  0
  4  5  2  0
  5  6  1  0
  6  7  2  0
  7  8  1  0
  8  9  1  0
  9 10  2  0
 10 11  1  0
 11 12  1  0
 12 13  2  0
 13 14  1  0
 14 15  2  0
 15 16  1  0
 16 17  2  0
 17 18  1  0
 18 19  1  0
 19 20  2  0
 20 21  1  0
 21 22  2  0
 22 23  1  0
 23 24  2  0
 24 25  1  0
 25 26  2  0
 26 27  1  0
 27 28  2  0
 28 29  1  0
 29 30  2  0
 15 31  1  0
 31 32  1  0
  5  1  1  0
 32  6  1  0
 31  8  2  0
 13  9  1  0
 30 14  1  0
 20 16  1  0
 30 21  1  0
 29 24  1  0
  1 33  1  0
  1 34  1  0
  2 35  1  0
  3 36  1  0
  4 37  1  0
  7 38  1  0
 17 39  1  0
 18 40  1  0
 19 41  1  0
 22 42  1  0
 23 43  1  0
 25 44  1  0
 26 45  1  0
 27 46  1  0
 28 47  1  0
M  END
