
     RDKit          3D

 45 46  0  0  0  0  0  0  0  0999 V2000
    7.4502    1.3861    1.3899 C   0  0  0  0  0  0  0  0  0  0  0  0
    6.7296    0.2734    0.6435 C   0  0  0  0  0  0  0  0  0  0  0  0
    5.8106   -0.5179    1.5753 C   0  0  0  0  0  0  0  0  0  0  0  0
    5.1596   -1.7340    0.9051 C   0  0  0  0  0  0  0  0  0  0  0  0
    4.2084   -1.4036   -0.2445 C   0  0  0  0  0  0  0  0  0  0  0  0
    2.9332   -0.7156    0.2015 C   0  0  0  0  0  0  0  0  0  0  0  0
    2.5648   -0.6162    1.3694 O   0  0  0  0  0  0  0  0  0  0  0  0
    2.1920   -0.2190   -0.8561 N   0  0  0  0  0  0  0  0  0  0  0  0
    0.8747    0.1888   -0.5652 N   0  0  0  0  0  0  0  0  0  0  0  0
   -0.1092   -0.2324   -1.4421 C   0  0  0  0  0  0  0  0  0  0  0  0
    0.1548   -0.7719   -2.5148 O   0  0  0  0  0  0  0  0  0  0  0  0
   -1.5200   -0.0360   -1.0077 C   0  0  0  0  0  0  0  0  0  0  0  0
   -2.5136   -0.8187   -1.6053 C   0  0  0  0  0  0  0  0  0  0  0  0
   -3.8526   -0.6686   -1.2294 C   0  0  0  0  0  0  0  0  0  0  0  0
   -4.2306    0.2693   -0.2554 C   0  0  0  0  0  0  0  0  0  0  0  0
   -5.6400    0.4275    0.1392 C   0  0  0  0  0  0  0  0  0  0  0  0
   -6.0281    0.3450    1.4871 C   0  0  0  0  0  0  0  0  0  0  0  0
   -7.3660    0.4950    1.8625 C   0  0  0  0  0  0  0  0  0  0  0  0
   -8.3393    0.7315    0.8953 C   0  0  0  0  0  0  0  0  0  0  0  0
   -7.9763    0.8173   -0.4462 C   0  0  0  0  0  0  0  0  0  0  0  0
   -6.6383    0.6659   -0.8203 C   0  0  0  0  0  0  0  0  0  0  0  0
   -3.2238    1.0580    0.3263 C   0  0  0  0  0  0  0  0  0  0  0  0
   -1.8816    0.9133   -0.0457 C   0  0  0  0  0  0  0  0  0  0  0  0
    8.0987    1.9427    0.7061 H   0  0  0  0  0  0  0  0  0  0  0  0
    6.7361    2.0897    1.8295 H   0  0  0  0  0  0  0  0  0  0  0  0
    8.0731    0.9806    2.1935 H   0  0  0  0  0  0  0  0  0  0  0  0
    6.1523    0.7194   -0.1732 H   0  0  0  0  0  0  0  0  0  0  0  0
    7.4715   -0.3960    0.1933 H   0  0  0  0  0  0  0  0  0  0  0  0
    5.0415    0.1466    1.9848 H   0  0  0  0  0  0  0  0  0  0  0  0
    6.3963   -0.8782    2.4305 H   0  0  0  0  0  0  0  0  0  0  0  0
    5.9504   -2.3933    0.5262 H   0  0  0  0  0  0  0  0  0  0  0  0
    4.6205   -2.3049    1.6715 H   0  0  0  0  0  0  0  0  0  0  0  0
    4.7063   -0.7918   -1.0034 H   0  0  0  0  0  0  0  0  0  0  0  0
    3.9092   -2.3415   -0.7288 H   0  0  0  0  0  0  0  0  0  0  0  0
    2.3167   -0.6037   -1.7937 H   0  0  0  0  0  0  0  0  0  0  0  0
    0.6757    0.2938    0.4298 H   0  0  0  0  0  0  0  0  0  0  0  0
   -2.2509   -1.5540   -2.3637 H   0  0  0  0  0  0  0  0  0  0  0  0
   -4.6035   -1.3016   -1.6995 H   0  0  0  0  0  0  0  0  0  0  0  0
   -5.2863    0.1491    2.2587 H   0  0  0  0  0  0  0  0  0  0  0  0
   -7.6463    0.4239    2.9103 H   0  0  0  0  0  0  0  0  0  0  0  0
   -9.3798    0.8484    1.1866 H   0  0  0  0  0  0  0  0  0  0  0  0
   -8.7330    1.0045   -1.2037 H   0  0  0  0  0  0  0  0  0  0  0  0
   -6.3760    0.7478   -1.8733 H   0  0  0  0  0  0  0  0  0  0  0  0
   -3.4853    1.8119    1.0675 H   0  0  0  0  0  0  0  0  0  0  0  0
   -1.1455    1.5694    0.4101 H   0  0  0  0  0  0  0  0  0  0  0  0
  1  2  1  0
  2  3  1  0
  3  4  1  0
  4  5  1  0
  5  6  1  0
  6  7  2  0
  6  8  1  0
  8  9  1  0
  9 10  1  0
 10 11  2  0
 10 12  1  0
 12 13  2  0
 13 14  1  0
 14 15  2  0
 15 16  1  0
 16 17  2  0
 17 18  1  0
 18 19  2  0
 19 20  1  0
 20 21  2  0
 15 22  1  0
 22 23  2  0
 23 12  1  0
 21 16  1  0
  1 24  1  0
  1 25  1  0
  1 26  1  0
  2 27  1  0
  2 28  1  0
  3 29  1  0
  3 30  1  0
  4 31  1  0
  4 32  1  0
  5 33  1  0
  5 34  1  0
  8 35  1  0
  9 36  1  0
 13 37  1  0
 14 38  1  0
 17 39  1  0
 18 40  1  0
 19 41  1  0
 20 42  1  0
 21 43  1  0
 22 44  1  0
 23 45  1  0
M  END
