
     RDKit          3D

 45 46  0  0  0  0  0  0  0  0999 V2000
    6.4006    0.7989    0.7715 C   0  0  0  0  0  0  0  0  0  0  0  0
    5.2039    1.7183    0.9575 C   0  0  0  0  0  0  0  0  0  0  0  0
    4.3705    1.9036   -0.3127 C   0  0  0  0  0  0  0  0  0  0  0  0
    3.7769    0.6258   -0.9166 C   0  0  0  0  0  0  0  0  0  0  0  0
    2.8214   -0.1056    0.0319 C   0  0  0  0  0  0  0  0  0  0  0  0
    2.1931   -1.3657   -0.5715 C   0  0  0  0  0  0  0  0  0  0  0  0
    1.1184   -1.0684   -2.0163 S   0  0  0  0  0  0  0  0  0  0  0  0
   -0.2164   -0.2418   -1.2908 C   0  0  0  0  0  0  0  0  0  0  0  0
   -1.2171   -0.8137   -0.5949 C   0  0  0  0  0  0  0  0  0  0  0  0
   -1.2487   -2.2223   -0.3524 C   0  0  0  0  0  0  0  0  0  0  0  0
   -1.2556   -3.3619   -0.1357 N   0  0  0  0  0  0  0  0  0  0  0  0
   -2.2831    0.0706    0.0355 C   0  0  0  0  0  0  0  0  0  0  0  0
   -3.6578   -0.5819    0.1554 C   0  0  0  0  0  0  0  0  0  0  0  0
   -4.2594   -0.7142    1.4174 C   0  0  0  0  0  0  0  0  0  0  0  0
   -5.5182   -1.3038    1.5451 C   0  0  0  0  0  0  0  0  0  0  0  0
   -6.1821   -1.7653    0.4163 C   0  0  0  0  0  0  0  0  0  0  0  0
   -7.4076   -2.3362    0.5896 O   0  0  0  0  0  0  0  0  0  0  0  0
   -5.6094   -1.6450   -0.8444 C   0  0  0  0  0  0  0  0  0  0  0  0
   -4.3508   -1.0525   -0.9747 C   0  0  0  0  0  0  0  0  0  0  0  0
   -2.4353    1.4273   -0.6663 C   0  0  0  0  0  0  0  0  0  0  0  0
   -1.1137    2.0115   -1.0875 C   0  0  0  0  0  0  0  0  0  0  0  0
   -0.9247    3.2200   -1.1846 O   0  0  0  0  0  0  0  0  0  0  0  0
   -0.1586    1.1115   -1.4640 N   0  0  0  0  0  0  0  0  0  0  0  0
    7.0311    1.1369   -0.0569 H   0  0  0  0  0  0  0  0  0  0  0  0
    6.0881   -0.2304    0.5723 H   0  0  0  0  0  0  0  0  0  0  0  0
    7.0114    0.7891    1.6799 H   0  0  0  0  0  0  0  0  0  0  0  0
    5.5679    2.7029    1.2756 H   0  0  0  0  0  0  0  0  0  0  0  0
    4.5778    1.3444    1.7748 H   0  0  0  0  0  0  0  0  0  0  0  0
    4.9937    2.3871   -1.0755 H   0  0  0  0  0  0  0  0  0  0  0  0
    3.5549    2.6042   -0.0937 H   0  0  0  0  0  0  0  0  0  0  0  0
    3.2465    0.9148   -1.8310 H   0  0  0  0  0  0  0  0  0  0  0  0
    4.5804   -0.0512   -1.2282 H   0  0  0  0  0  0  0  0  0  0  0  0
    2.0418    0.5806    0.3821 H   0  0  0  0  0  0  0  0  0  0  0  0
    3.3753   -0.4190    0.9248 H   0  0  0  0  0  0  0  0  0  0  0  0
    2.9876   -2.0476   -0.8939 H   0  0  0  0  0  0  0  0  0  0  0  0
    1.6217   -1.8928    0.1994 H   0  0  0  0  0  0  0  0  0  0  0  0
   -1.9195    0.2741    1.0546 H   0  0  0  0  0  0  0  0  0  0  0  0
   -3.7569   -0.3625    2.3160 H   0  0  0  0  0  0  0  0  0  0  0  0
   -5.9785   -1.4063    2.5240 H   0  0  0  0  0  0  0  0  0  0  0  0
   -7.7274   -2.6521   -0.2713 H   0  0  0  0  0  0  0  0  0  0  0  0
   -6.1221   -2.0044   -1.7312 H   0  0  0  0  0  0  0  0  0  0  0  0
   -3.9167   -0.9679   -1.9691 H   0  0  0  0  0  0  0  0  0  0  0  0
   -3.0468    1.3541   -1.5745 H   0  0  0  0  0  0  0  0  0  0  0  0
   -2.9325    2.1373    0.0061 H   0  0  0  0  0  0  0  0  0  0  0  0
    0.6758    1.4994   -1.8903 H   0  0  0  0  0  0  0  0  0  0  0  0
  1  2  1  0
  2  3  1  0
  3  4  1  0
  4  5  1  0
  5  6  1  0
  6  7  1  0
  7  8  1  0
  8  9  2  0
  9 10  1  0
 10 11  3  0
  9 12  1  0
 12 13  1  0
 13 14  2  0
 14 15  1  0
 15 16  2  0
 16 17  1  0
 16 18  1  0
 18 19  2  0
 12 20  1  0
 20 21  1  0
 21 22  2  0
 21 23  1  0
 23  8  1  0
 19 13  1  0
  1 24  1  0
  1 25  1  0
  1 26  1  0
  2 27  1  0
  2 28  1  0
  3 29  1  0
  3 30  1  0
  4 31  1  0
  4 32  1  0
  5 33  1  0
  5 34  1  0
  6 35  1  0
  6 36  1  0
 12 37  1  0
 14 38  1  0
 15 39  1  0
 17 40  1  0
 18 41  1  0
 19 42  1  0
 20 43  1  0
 20 44  1  0
 23 45  1  0
M  END
