
     RDKit          3D

 34 34  0  0  0  0  0  0  0  0999 V2000
   -3.8821    0.6785    0.8595 C   0  0  0  0  0  0  0  0  0  0  0  0
   -2.7262   -0.2210    1.2708 C   0  0  0  0  0  0  0  0  0  0  0  0
   -2.4230   -1.3155    0.2442 C   0  0  0  0  0  0  0  0  0  0  0  0
   -1.7279   -0.8159   -1.0306 C   0  0  0  0  0  0  0  0  0  0  0  0
   -0.3696   -0.3089   -0.8003 N   0  0  0  0  0  0  0  0  0  0  0  0
   -0.0079    0.9400   -1.4837 C   0  0  0  0  0  0  0  0  0  0  0  0
   -0.5966    2.1714   -0.8164 C   0  0  0  0  0  0  0  0  0  0  0  0
    0.6039   -1.2544   -0.4475 C   0  0  0  0  0  0  0  0  0  0  0  0
    0.4045   -2.4661   -0.4178 O   0  0  0  0  0  0  0  0  0  0  0  0
    1.9500   -0.7827   -0.0485 C   0  0  0  0  0  0  0  0  0  0  0  0
    2.0979    0.2232    0.9122 C   0  0  0  0  0  0  0  0  0  0  0  0
    3.3770    0.6308    1.2958 C   0  0  0  0  0  0  0  0  0  0  0  0
    4.5060    0.0251    0.7324 C   0  0  0  0  0  0  0  0  0  0  0  0
    6.0566    0.5844    1.2498 Cl  0  0  0  0  0  0  0  0  0  0  0  0
    4.3530   -0.9997   -0.2113 C   0  0  0  0  0  0  0  0  0  0  0  0
    5.7035   -1.7956   -0.9380 Cl  0  0  0  0  0  0  0  0  0  0  0  0
    3.0739   -1.4095   -0.5957 C   0  0  0  0  0  0  0  0  0  0  0  0
   -4.0750    1.4223    1.6392 H   0  0  0  0  0  0  0  0  0  0  0  0
   -3.6719    1.2140   -0.0693 H   0  0  0  0  0  0  0  0  0  0  0  0
   -4.7978    0.0957    0.7169 H   0  0  0  0  0  0  0  0  0  0  0  0
   -1.8339    0.3834    1.4660 H   0  0  0  0  0  0  0  0  0  0  0  0
   -2.9926   -0.7016    2.2200 H   0  0  0  0  0  0  0  0  0  0  0  0
   -1.8066   -2.0782    0.7327 H   0  0  0  0  0  0  0  0  0  0  0  0
   -3.3588   -1.8134   -0.0382 H   0  0  0  0  0  0  0  0  0  0  0  0
   -2.3342   -0.0354   -1.5014 H   0  0  0  0  0  0  0  0  0  0  0  0
   -1.6573   -1.6400   -1.7512 H   0  0  0  0  0  0  0  0  0  0  0  0
    1.0779    1.0515   -1.5471 H   0  0  0  0  0  0  0  0  0  0  0  0
   -0.3601    0.8662   -2.5198 H   0  0  0  0  0  0  0  0  0  0  0  0
   -0.3010    2.2336    0.2351 H   0  0  0  0  0  0  0  0  0  0  0  0
   -1.6886    2.1651   -0.8578 H   0  0  0  0  0  0  0  0  0  0  0  0
   -0.2503    3.0773   -1.3237 H   0  0  0  0  0  0  0  0  0  0  0  0
    1.2239    0.6760    1.3742 H   0  0  0  0  0  0  0  0  0  0  0  0
    3.4886    1.4147    2.0416 H   0  0  0  0  0  0  0  0  0  0  0  0
    2.9446   -2.2152   -1.3155 H   0  0  0  0  0  0  0  0  0  0  0  0
  1  2  1  0
  2  3  1  0
  3  4  1  0
  4  5  1  0
  5  6  1  0
  6  7  1  0
  5  8  1  0
  8  9  2  0
  8 10  1  0
 10 11  2  0
 11 12  1  0
 12 13  2  0
 13 14  1  0
 13 15  1  0
 15 16  1  0
 15 17  2  0
 17 10  1  0
  1 18  1  0
  1 19  1  0
  1 20  1  0
  2 21  1  0
  2 22  1  0
  3 23  1  0
  3 24  1  0
  4 25  1  0
  4 26  1  0
  6 27  1  0
  6 28  1  0
  7 29  1  0
  7 30  1  0
  7 31  1  0
 11 32  1  0
 12 33  1  0
 17 34  1  0
M  END
