
     RDKit          3D

 40 42  0  0  0  0  0  0  0  0999 V2000
   -1.3592   -4.1826    0.4574 C   0  0  0  0  0  0  0  0  0  0  0  0
   -2.0636   -3.0356    1.1654 C   0  0  0  0  0  0  0  0  0  0  0  0
   -1.2921   -1.7166    1.1033 C   0  0  0  0  0  0  0  0  0  0  0  0
   -1.1675   -1.1596   -0.3141 C   0  0  0  0  0  0  0  0  0  0  0  0
   -0.5231    0.1472   -0.3280 N   0  0  0  0  0  0  0  0  0  0  0  0
   -1.1400    1.3860   -0.2084 C   0  0  0  0  0  0  0  0  0  0  0  0
   -2.5139    1.4785   -0.0044 N   0  0  0  0  0  0  0  0  0  0  0  0
   -3.2601    2.5896   -0.3572 C   0  0  0  0  0  0  0  0  0  0  0  0
   -4.7016    2.4821    0.0701 C   0  0  0  0  0  0  0  0  0  0  0  0
   -2.8610    3.5480   -1.0062 O   0  0  0  0  0  0  0  0  0  0  0  0
   -0.1275    2.3429   -0.2906 C   0  0  0  0  0  0  0  0  0  0  0  0
   -0.2146    3.7565   -0.0877 C   0  0  0  0  0  0  0  0  0  0  0  0
   -0.2309    4.8964    0.1379 N   0  0  0  0  0  0  0  0  0  0  0  0
    1.0962    1.6667   -0.5103 C   0  0  0  0  0  0  0  0  0  0  0  0
    2.3620    2.1338   -0.6573 N   0  0  0  0  0  0  0  0  0  0  0  0
    3.2936    1.1828   -0.8324 C   0  0  0  0  0  0  0  0  0  0  0  0
    4.6145    1.5781   -0.9999 C   0  0  0  0  0  0  0  0  0  0  0  0
    5.6381    0.6481   -1.1860 C   0  0  0  0  0  0  0  0  0  0  0  0
    5.3362   -0.7061   -1.2049 C   0  0  0  0  0  0  0  0  0  0  0  0
    4.0132   -1.1181   -1.0372 C   0  0  0  0  0  0  0  0  0  0  0  0
    2.9837   -0.2041   -0.8513 C   0  0  0  0  0  0  0  0  0  0  0  0
    1.7329   -0.6734   -0.6945 N   0  0  0  0  0  0  0  0  0  0  0  0
    0.8245    0.3090   -0.5280 C   0  0  0  0  0  0  0  0  0  0  0  0
   -1.3018   -4.0134   -0.6218 H   0  0  0  0  0  0  0  0  0  0  0  0
   -0.3432   -4.3171    0.8418 H   0  0  0  0  0  0  0  0  0  0  0  0
   -1.9082   -5.1161    0.6173 H   0  0  0  0  0  0  0  0  0  0  0  0
   -2.2013   -3.3084    2.2185 H   0  0  0  0  0  0  0  0  0  0  0  0
   -3.0646   -2.9028    0.7390 H   0  0  0  0  0  0  0  0  0  0  0  0
   -1.8080   -0.9863    1.7393 H   0  0  0  0  0  0  0  0  0  0  0  0
   -0.2945   -1.8515    1.5402 H   0  0  0  0  0  0  0  0  0  0  0  0
   -2.1484   -1.0567   -0.7905 H   0  0  0  0  0  0  0  0  0  0  0  0
   -0.5791   -1.8270   -0.9530 H   0  0  0  0  0  0  0  0  0  0  0  0
   -3.0344    0.6395    0.2189 H   0  0  0  0  0  0  0  0  0  0  0  0
   -5.0734    3.4759    0.3352 H   0  0  0  0  0  0  0  0  0  0  0  0
   -4.8085    1.8356    0.9460 H   0  0  0  0  0  0  0  0  0  0  0  0
   -5.2923    2.0754   -0.7547 H   0  0  0  0  0  0  0  0  0  0  0  0
    4.8523    2.6399   -0.9854 H   0  0  0  0  0  0  0  0  0  0  0  0
    6.6635    0.9856   -1.3152 H   0  0  0  0  0  0  0  0  0  0  0  0
    6.1229   -1.4425   -1.3491 H   0  0  0  0  0  0  0  0  0  0  0  0
    3.7792   -2.1801   -1.0522 H   0  0  0  0  0  0  0  0  0  0  0  0
  1  2  1  0
  2  3  1  0
  3  4  1  0
  4  5  1  0
  5  6  1  0
  6  7  1  0
  7  8  1  0
  8  9  1  0
  8 10  2  0
  6 11  2  0
 11 12  1  0
 12 13  3  0
 11 14  1  0
 14 15  2  0
 15 16  1  0
 16 17  2  0
 17 18  1  0
 18 19  2  0
 19 20  1  0
 20 21  2  0
 21 22  1  0
 22 23  2  0
 23  5  1  0
 23 14  1  0
 21 16  1  0
  1 24  1  0
  1 25  1  0
  1 26  1  0
  2 27  1  0
  2 28  1  0
  3 29  1  0
  3 30  1  0
  4 31  1  0
  4 32  1  0
  7 33  1  0
  9 34  1  0
  9 35  1  0
  9 36  1  0
 17 37  1  0
 18 38  1  0
 19 39  1  0
 20 40  1  0
M  END
