
     RDKit          3D

 39 40  0  0  0  0  0  0  0  0999 V2000
   -6.1586    1.9345    0.6518 C   0  0  0  0  0  0  0  0  0  0  0  0
   -5.1974    1.0138   -0.0816 C   0  0  0  0  0  0  0  0  0  0  0  0
   -4.5740   -0.0133    0.8637 C   0  0  0  0  0  0  0  0  0  0  0  0
   -3.6567   -0.8911    0.1553 N   0  0  0  0  0  0  0  0  0  0  0  0
   -4.0809   -2.0810   -0.3627 C   0  0  0  0  0  0  0  0  0  0  0  0
   -5.2191   -2.5199   -0.3662 O   0  0  0  0  0  0  0  0  0  0  0  0
   -2.7323   -2.9739   -1.0247 S   0  0  0  0  0  0  0  0  0  0  0  0
   -1.6078   -1.5479   -0.9033 C   0  0  0  0  0  0  0  0  0  0  0  0
   -0.2568   -1.9515   -0.3265 C   0  0  0  0  0  0  0  0  0  0  0  0
    0.8212   -0.9510   -0.7130 C   0  0  0  0  0  0  0  0  0  0  0  0
    0.6670   -0.1719   -1.6462 O   0  0  0  0  0  0  0  0  0  0  0  0
    1.9590   -1.0973    0.0634 N   0  0  0  0  0  0  0  0  0  0  0  0
    3.1588   -0.3597   -0.0226 C   0  0  0  0  0  0  0  0  0  0  0  0
    3.3808    0.6709   -0.9353 C   0  0  0  0  0  0  0  0  0  0  0  0
    4.6031    1.3536   -0.9538 C   0  0  0  0  0  0  0  0  0  0  0  0
    5.6195    1.0239   -0.0523 C   0  0  0  0  0  0  0  0  0  0  0  0
    6.9384    1.7360   -0.0984 C   0  0  0  0  0  0  0  0  0  0  0  0
    5.4037   -0.0173    0.8539 C   0  0  0  0  0  0  0  0  0  0  0  0
    4.1821   -0.6983    0.8716 C   0  0  0  0  0  0  0  0  0  0  0  0
   -2.3249   -0.5760    0.0147 C   0  0  0  0  0  0  0  0  0  0  0  0
   -1.7750    0.3753    0.5590 O   0  0  0  0  0  0  0  0  0  0  0  0
   -6.5926    2.6605   -0.0427 H   0  0  0  0  0  0  0  0  0  0  0  0
   -6.9773    1.3662    1.1047 H   0  0  0  0  0  0  0  0  0  0  0  0
   -5.6442    2.4876    1.4441 H   0  0  0  0  0  0  0  0  0  0  0  0
   -4.4104    1.6136   -0.5542 H   0  0  0  0  0  0  0  0  0  0  0  0
   -5.7318    0.5015   -0.8905 H   0  0  0  0  0  0  0  0  0  0  0  0
   -4.0306    0.4998    1.6655 H   0  0  0  0  0  0  0  0  0  0  0  0
   -5.3611   -0.6180    1.3291 H   0  0  0  0  0  0  0  0  0  0  0  0
   -1.5418   -1.0955   -1.8976 H   0  0  0  0  0  0  0  0  0  0  0  0
    0.0712   -2.9178   -0.7304 H   0  0  0  0  0  0  0  0  0  0  0  0
   -0.3018   -2.0326    0.7667 H   0  0  0  0  0  0  0  0  0  0  0  0
    1.9355   -1.8062    0.7852 H   0  0  0  0  0  0  0  0  0  0  0  0
    2.6237    0.9744   -1.6512 H   0  0  0  0  0  0  0  0  0  0  0  0
    4.7497    2.1491   -1.6814 H   0  0  0  0  0  0  0  0  0  0  0  0
    6.8110    2.7733   -0.4254 H   0  0  0  0  0  0  0  0  0  0  0  0
    7.6146    1.2266   -0.7918 H   0  0  0  0  0  0  0  0  0  0  0  0
    7.4026    1.7632    0.8931 H   0  0  0  0  0  0  0  0  0  0  0  0
    6.1843   -0.3055    1.5544 H   0  0  0  0  0  0  0  0  0  0  0  0
    4.0488   -1.4982    1.5948 H   0  0  0  0  0  0  0  0  0  0  0  0
  1  2  1  0
  2  3  1  0
  3  4  1  0
  4  5  1  0
  5  6  2  0
  5  7  1  0
  7  8  1  0
  8  9  1  0
  9 10  1  0
 10 11  2  0
 10 12  1  0
 12 13  1  0
 13 14  2  0
 14 15  1  0
 15 16  2  0
 16 17  1  0
 16 18  1  0
 18 19  2  0
  8 20  1  0
 20 21  2  0
 20  4  1  0
 19 13  1  0
  1 22  1  0
  1 23  1  0
  1 24  1  0
  2 25  1  0
  2 26  1  0
  3 27  1  0
  3 28  1  0
  8 29  1  0
  9 30  1  0
  9 31  1  0
 12 32  1  0
 14 33  1  0
 15 34  1  0
 17 35  1  0
 17 36  1  0
 17 37  1  0
 18 38  1  0
 19 39  1  0
M  END
