
     RDKit          3D

 38 40  0  0  0  0  0  0  0  0999 V2000
   -2.1588   -2.9270   -2.2918 C   0  0  0  0  0  0  0  0  0  0  0  0
   -2.2261   -2.0698   -1.0387 C   0  0  0  0  0  0  0  0  0  0  0  0
   -1.2474   -0.9009   -1.1124 C   0  0  0  0  0  0  0  0  0  0  0  0
   -1.2881   -0.0763    0.0823 N   0  0  0  0  0  0  0  0  0  0  0  0
   -0.5354   -0.2403    1.2268 C   0  0  0  0  0  0  0  0  0  0  0  0
    0.4563   -1.3341    1.4473 C   0  0  0  0  0  0  0  0  0  0  0  0
    1.7753   -0.7641    1.3230 N   0  0  0  0  0  0  0  0  0  0  0  0
    2.5693   -0.9550    0.2173 C   0  0  0  0  0  0  0  0  0  0  0  0
    2.2490   -1.7419   -0.6722 O   0  0  0  0  0  0  0  0  0  0  0  0
    3.7940   -0.1661    0.1655 C   0  0  0  0  0  0  0  0  0  0  0  0
    4.7500   -0.1928   -0.8349 C   0  0  0  0  0  0  0  0  0  0  0  0
    5.8306    0.7025   -0.5894 C   0  0  0  0  0  0  0  0  0  0  0  0
    5.6685    1.3885    0.5925 C   0  0  0  0  0  0  0  0  0  0  0  0
    4.2237    0.9513    1.3943 S   0  0  0  0  0  0  0  0  0  0  0  0
   -0.7964    0.7178    2.0986 N   0  0  0  0  0  0  0  0  0  0  0  0
   -1.7554    1.5048    1.5162 C   0  0  0  0  0  0  0  0  0  0  0  0
   -2.3916    2.6500    2.0175 C   0  0  0  0  0  0  0  0  0  0  0  0
   -3.3542    3.2882    1.2267 C   0  0  0  0  0  0  0  0  0  0  0  0
   -3.6768    2.7952   -0.0384 C   0  0  0  0  0  0  0  0  0  0  0  0
   -3.0510    1.6544   -0.5549 C   0  0  0  0  0  0  0  0  0  0  0  0
   -2.0896    1.0316    0.2518 C   0  0  0  0  0  0  0  0  0  0  0  0
   -2.8675   -3.7581   -2.2212 H   0  0  0  0  0  0  0  0  0  0  0  0
   -2.4098   -2.3410   -3.1817 H   0  0  0  0  0  0  0  0  0  0  0  0
   -1.1564   -3.3457   -2.4268 H   0  0  0  0  0  0  0  0  0  0  0  0
   -3.2491   -1.6962   -0.9108 H   0  0  0  0  0  0  0  0  0  0  0  0
   -2.0074   -2.6927   -0.1633 H   0  0  0  0  0  0  0  0  0  0  0  0
   -1.4740   -0.2587   -1.9711 H   0  0  0  0  0  0  0  0  0  0  0  0
   -0.2216   -1.2509   -1.2518 H   0  0  0  0  0  0  0  0  0  0  0  0
    0.3214   -2.1810    0.7705 H   0  0  0  0  0  0  0  0  0  0  0  0
    0.3626   -1.7058    2.4730 H   0  0  0  0  0  0  0  0  0  0  0  0
    2.0036   -0.0021    1.9504 H   0  0  0  0  0  0  0  0  0  0  0  0
    4.6693   -0.8334   -1.7062 H   0  0  0  0  0  0  0  0  0  0  0  0
    6.6816    0.8358   -1.2464 H   0  0  0  0  0  0  0  0  0  0  0  0
    6.3292    2.1273    1.0257 H   0  0  0  0  0  0  0  0  0  0  0  0
   -2.1359    3.0251    3.0019 H   0  0  0  0  0  0  0  0  0  0  0  0
   -3.8543    4.1763    1.6051 H   0  0  0  0  0  0  0  0  0  0  0  0
   -4.4289    3.3072   -0.6354 H   0  0  0  0  0  0  0  0  0  0  0  0
   -3.3085    1.2778   -1.5387 H   0  0  0  0  0  0  0  0  0  0  0  0
  1  2  1  0
  2  3  1  0
  3  4  1  0
  4  5  1  0
  5  6  1  0
  6  7  1  0
  7  8  1  0
  8  9  2  0
  8 10  1  0
 10 11  2  0
 11 12  1  0
 12 13  2  0
 13 14  1  0
  5 15  2  0
 15 16  1  0
 16 17  2  0
 17 18  1  0
 18 19  2  0
 19 20  1  0
 20 21  2  0
 21  4  1  0
 14 10  1  0
 21 16  1  0
  1 22  1  0
  1 23  1  0
  1 24  1  0
  2 25  1  0
  2 26  1  0
  3 27  1  0
  3 28  1  0
  6 29  1  0
  6 30  1  0
  7 31  1  0
 11 32  1  0
 12 33  1  0
 13 34  1  0
 17 35  1  0
 18 36  1  0
 19 37  1  0
 20 38  1  0
M  END
