
     RDKit          3D

 41 44  0  0  0  0  0  0  0  0999 V2000
   -3.2831    3.8207   -0.3323 C   0  0  0  0  0  0  0  0  0  0  0  0
   -2.5642    2.6080    0.2354 C   0  0  0  0  0  0  0  0  0  0  0  0
   -2.8373    1.3589   -0.5985 C   0  0  0  0  0  0  0  0  0  0  0  0
   -2.1665    0.1866   -0.0670 N   0  0  0  0  0  0  0  0  0  0  0  0
   -0.8560   -0.1931   -0.2923 C   0  0  0  0  0  0  0  0  0  0  0  0
   -0.0331    0.5188   -1.1027 N   0  0  0  0  0  0  0  0  0  0  0  0
    1.3073    0.2896   -1.3483 C   0  0  0  0  0  0  0  0  0  0  0  0
    2.3114   -0.1795   -0.5987 C   0  0  0  0  0  0  0  0  0  0  0  0
    2.3100   -0.5520    0.8403 C   0  0  0  0  0  0  0  0  0  0  0  0
    3.4837   -0.9209    1.2829 N   0  0  0  0  0  0  0  0  0  0  0  0
    4.3413   -0.8297    0.1634 C   0  0  0  0  0  0  0  0  0  0  0  0
    5.6912   -1.1314    0.1537 C   0  0  0  0  0  0  0  0  0  0  0  0
    6.3974   -0.9819   -1.0437 C   0  0  0  0  0  0  0  0  0  0  0  0
    5.7488   -0.5360   -2.2088 C   0  0  0  0  0  0  0  0  0  0  0  0
    4.3842   -0.2314   -2.1963 C   0  0  0  0  0  0  0  0  0  0  0  0
    3.6989   -0.3819   -1.0030 C   0  0  0  0  0  0  0  0  0  0  0  0
   -0.5844   -1.3017    0.3592 N   0  0  0  0  0  0  0  0  0  0  0  0
   -1.7249   -1.6436    1.0343 C   0  0  0  0  0  0  0  0  0  0  0  0
   -1.9629   -2.7335    1.8843 C   0  0  0  0  0  0  0  0  0  0  0  0
   -3.2259   -2.8665    2.4723 C   0  0  0  0  0  0  0  0  0  0  0  0
   -4.2309   -1.9317    2.2196 C   0  0  0  0  0  0  0  0  0  0  0  0
   -4.0107   -0.8382    1.3732 C   0  0  0  0  0  0  0  0  0  0  0  0
   -2.7406   -0.7263    0.7919 C   0  0  0  0  0  0  0  0  0  0  0  0
   -2.9526    4.0291   -1.3549 H   0  0  0  0  0  0  0  0  0  0  0  0
   -4.3664    3.6637   -0.3459 H   0  0  0  0  0  0  0  0  0  0  0  0
   -3.0757    4.7049    0.2785 H   0  0  0  0  0  0  0  0  0  0  0  0
   -2.8890    2.4470    1.2704 H   0  0  0  0  0  0  0  0  0  0  0  0
   -1.4875    2.8119    0.2714 H   0  0  0  0  0  0  0  0  0  0  0  0
   -2.5155    1.4947   -1.6365 H   0  0  0  0  0  0  0  0  0  0  0  0
   -3.9116    1.1467   -0.6359 H   0  0  0  0  0  0  0  0  0  0  0  0
   -0.4541    1.1219   -1.8014 H   0  0  0  0  0  0  0  0  0  0  0  0
    1.5435    0.5958   -2.3660 H   0  0  0  0  0  0  0  0  0  0  0  0
    1.4071   -0.4745    1.4561 H   0  0  0  0  0  0  0  0  0  0  0  0
    6.1806   -1.4759    1.0578 H   0  0  0  0  0  0  0  0  0  0  0  0
    7.4592   -1.2154   -1.0733 H   0  0  0  0  0  0  0  0  0  0  0  0
    6.3173   -0.4304   -3.1302 H   0  0  0  0  0  0  0  0  0  0  0  0
    3.8883    0.1061   -3.0987 H   0  0  0  0  0  0  0  0  0  0  0  0
   -1.1741   -3.4522    2.0777 H   0  0  0  0  0  0  0  0  0  0  0  0
   -3.4212   -3.7066    3.1344 H   0  0  0  0  0  0  0  0  0  0  0  0
   -5.2041   -2.0544    2.6907 H   0  0  0  0  0  0  0  0  0  0  0  0
   -4.7975   -0.1158    1.1868 H   0  0  0  0  0  0  0  0  0  0  0  0
  1  2  1  0
  2  3  1  0
  3  4  1  0
  4  5  1  0
  5  6  1  0
  6  7  1  0
  7  8  2  3
  8  9  1  0
  9 10  2  0
 10 11  1  0
 11 12  2  0
 12 13  1  0
 13 14  2  0
 14 15  1  0
 15 16  2  0
  5 17  2  0
 17 18  1  0
 18 19  2  0
 19 20  1  0
 20 21  2  0
 21 22  1  0
 22 23  2  0
 23  4  1  0
 16  8  1  0
 23 18  1  0
 16 11  1  0
  1 24  1  0
  1 25  1  0
  1 26  1  0
  2 27  1  0
  2 28  1  0
  3 29  1  0
  3 30  1  0
  6 31  1  0
  7 32  1  0
  9 33  1  0
 12 34  1  0
 13 35  1  0
 14 36  1  0
 15 37  1  0
 19 38  1  0
 20 39  1  0
 21 40  1  0
 22 41  1  0
M  END
