
     RDKit          3D

 32 33  0  0  0  0  0  0  0  0999 V2000
    4.7069    0.8522    0.2965 C   0  0  0  0  0  0  0  0  0  0  0  0
    3.2335    0.5302    0.4826 C   0  0  0  0  0  0  0  0  0  0  0  0
    2.5788    0.1236   -0.8365 C   0  0  0  0  0  0  0  0  0  0  0  0
    1.1619   -0.1795   -0.6595 N   0  0  0  0  0  0  0  0  0  0  0  0
    0.3035    0.8828   -0.7811 N   0  0  0  0  0  0  0  0  0  0  0  0
   -0.9675    0.7007   -0.5878 C   0  0  0  0  0  0  0  0  0  0  0  0
   -1.8603    1.9132   -0.7463 C   0  0  0  0  0  0  0  0  0  0  0  0
   -2.3145    2.4949    0.5572 C   0  0  0  0  0  0  0  0  0  0  0  0
   -2.2149    1.9991    1.6659 O   0  0  0  0  0  0  0  0  0  0  0  0
   -2.9360    3.6805    0.3946 O   0  0  0  0  0  0  0  0  0  0  0  0
   -1.5522   -0.6132   -0.2351 C   0  0  0  0  0  0  0  0  0  0  0  0
   -2.9244   -0.8217   -0.0422 C   0  0  0  0  0  0  0  0  0  0  0  0
   -3.4006   -2.0940    0.2888 C   0  0  0  0  0  0  0  0  0  0  0  0
   -2.5146   -3.1602    0.4286 C   0  0  0  0  0  0  0  0  0  0  0  0
   -1.1491   -2.9554    0.2384 C   0  0  0  0  0  0  0  0  0  0  0  0
   -0.6707   -1.6801   -0.0939 C   0  0  0  0  0  0  0  0  0  0  0  0
    0.7733   -1.4653   -0.2961 C   0  0  0  0  0  0  0  0  0  0  0  0
    1.5507   -2.4052   -0.1451 O   0  0  0  0  0  0  0  0  0  0  0  0
    5.2529   -0.0164   -0.0855 H   0  0  0  0  0  0  0  0  0  0  0  0
    5.1554    1.1420    1.2519 H   0  0  0  0  0  0  0  0  0  0  0  0
    4.8416    1.6799   -0.4071 H   0  0  0  0  0  0  0  0  0  0  0  0
    3.1288   -0.2758    1.2184 H   0  0  0  0  0  0  0  0  0  0  0  0
    2.7209    1.4054    0.8994 H   0  0  0  0  0  0  0  0  0  0  0  0
    2.6696    0.9270   -1.5774 H   0  0  0  0  0  0  0  0  0  0  0  0
    3.0824   -0.7588   -1.2483 H   0  0  0  0  0  0  0  0  0  0  0  0
   -1.2969    2.6856   -1.2843 H   0  0  0  0  0  0  0  0  0  0  0  0
   -2.7331    1.6562   -1.3541 H   0  0  0  0  0  0  0  0  0  0  0  0
   -3.1702    3.9589    1.3056 H   0  0  0  0  0  0  0  0  0  0  0  0
   -3.6471   -0.0169   -0.1312 H   0  0  0  0  0  0  0  0  0  0  0  0
   -4.4658   -2.2523    0.4437 H   0  0  0  0  0  0  0  0  0  0  0  0
   -2.8848   -4.1490    0.6892 H   0  0  0  0  0  0  0  0  0  0  0  0
   -0.4574   -3.7884    0.3506 H   0  0  0  0  0  0  0  0  0  0  0  0
  1  2  1  0
  2  3  1  0
  3  4  1  0
  4  5  1  0
  5  6  2  0
  6  7  1  0
  7  8  1  0
  8  9  2  0
  8 10  1  0
  6 11  1  0
 11 12  2  0
 12 13  1  0
 13 14  2  0
 14 15  1  0
 15 16  2  0
 16 17  1  0
 17 18  2  0
 17  4  1  0
 16 11  1  0
  1 19  1  0
  1 20  1  0
  1 21  1  0
  2 22  1  0
  2 23  1  0
  3 24  1  0
  3 25  1  0
  7 26  1  0
  7 27  1  0
 10 28  1  0
 12 29  1  0
 13 30  1  0
 14 31  1  0
 15 32  1  0
M  END
