
     RDKit          3D

 40 41  0  0  0  0  0  0  0  0999 V2000
    6.3961    0.5501    0.5477 C   0  0  0  0  0  0  0  0  0  0  0  0
    5.9383   -0.3031   -0.6266 C   0  0  0  0  0  0  0  0  0  0  0  0
    4.5729   -0.9401   -0.3902 C   0  0  0  0  0  0  0  0  0  0  0  0
    3.5137    0.0472   -0.3315 N   0  0  0  0  0  0  0  0  0  0  0  0
    2.2649   -0.3288    0.1010 C   0  0  0  0  0  0  0  0  0  0  0  0
    1.9819   -1.4381    0.5280 O   0  0  0  0  0  0  0  0  0  0  0  0
    1.3799    0.7156   -0.0154 N   0  0  0  0  0  0  0  0  0  0  0  0
    0.0190    0.5745    0.4769 C   0  0  0  0  0  0  0  0  0  0  0  0
   -0.8562   -0.2979   -0.4277 C   0  0  0  0  0  0  0  0  0  0  0  0
   -2.2685   -0.3763    0.0679 C   0  0  0  0  0  0  0  0  0  0  0  0
   -2.7888   -1.3349    0.9237 C   0  0  0  0  0  0  0  0  0  0  0  0
   -2.1438   -2.5104    1.5653 C   0  0  0  0  0  0  0  0  0  0  0  0
   -4.1137   -1.0402    1.1244 N   0  0  0  0  0  0  0  0  0  0  0  0
   -4.4688    0.0916    0.4302 C   0  0  0  0  0  0  0  0  0  0  0  0
   -5.7014    0.7511    0.3508 C   0  0  0  0  0  0  0  0  0  0  0  0
   -5.7732    1.8971   -0.4464 C   0  0  0  0  0  0  0  0  0  0  0  0
   -4.6560    2.3616   -1.1357 C   0  0  0  0  0  0  0  0  0  0  0  0
   -3.4316    1.6891   -1.0446 C   0  0  0  0  0  0  0  0  0  0  0  0
   -3.3321    0.5305   -0.2464 C   0  0  0  0  0  0  0  0  0  0  0  0
    5.7201    1.3944    0.7148 H   0  0  0  0  0  0  0  0  0  0  0  0
    6.4421   -0.0416    1.4675 H   0  0  0  0  0  0  0  0  0  0  0  0
    7.3952    0.9530    0.3537 H   0  0  0  0  0  0  0  0  0  0  0  0
    6.6758   -1.0966   -0.7936 H   0  0  0  0  0  0  0  0  0  0  0  0
    5.9148    0.3135   -1.5329 H   0  0  0  0  0  0  0  0  0  0  0  0
    4.5718   -1.5244    0.5372 H   0  0  0  0  0  0  0  0  0  0  0  0
    4.3336   -1.6245   -1.2122 H   0  0  0  0  0  0  0  0  0  0  0  0
    3.4813    0.7133   -1.0898 H   0  0  0  0  0  0  0  0  0  0  0  0
    1.8118    1.6158    0.1349 H   0  0  0  0  0  0  0  0  0  0  0  0
    0.0580    0.1666    1.4941 H   0  0  0  0  0  0  0  0  0  0  0  0
   -0.3969    1.5865    0.5428 H   0  0  0  0  0  0  0  0  0  0  0  0
   -0.8463    0.1056   -1.4482 H   0  0  0  0  0  0  0  0  0  0  0  0
   -0.4390   -1.3089   -0.5057 H   0  0  0  0  0  0  0  0  0  0  0  0
   -1.2080   -2.2166    2.0515 H   0  0  0  0  0  0  0  0  0  0  0  0
   -1.9180   -3.2743    0.8147 H   0  0  0  0  0  0  0  0  0  0  0  0
   -2.7906   -2.9598    2.3257 H   0  0  0  0  0  0  0  0  0  0  0  0
   -4.7467   -1.5744    1.7028 H   0  0  0  0  0  0  0  0  0  0  0  0
   -6.5735    0.3902    0.8857 H   0  0  0  0  0  0  0  0  0  0  0  0
   -6.7165    2.4317   -0.5298 H   0  0  0  0  0  0  0  0  0  0  0  0
   -4.7335    3.2535   -1.7522 H   0  0  0  0  0  0  0  0  0  0  0  0
   -2.5680    2.0587   -1.5887 H   0  0  0  0  0  0  0  0  0  0  0  0
  1  2  1  0
  2  3  1  0
  3  4  1  0
  4  5  1  0
  5  6  2  0
  5  7  1  0
  7  8  1  0
  8  9  1  0
  9 10  1  0
 10 11  2  0
 11 12  1  0
 11 13  1  0
 13 14  1  0
 14 15  2  0
 15 16  1  0
 16 17  2  0
 17 18  1  0
 18 19  2  0
 19 10  1  0
 19 14  1  0
  1 20  1  0
  1 21  1  0
  1 22  1  0
  2 23  1  0
  2 24  1  0
  3 25  1  0
  3 26  1  0
  4 27  1  0
  7 28  1  0
  8 29  1  0
  8 30  1  0
  9 31  1  0
  9 32  1  0
 12 33  1  0
 12 34  1  0
 12 35  1  0
 13 36  1  0
 15 37  1  0
 16 38  1  0
 17 39  1  0
 18 40  1  0
M  END
