
     RDKit          3D

 27 28  0  0  0  0  0  0  0  0999 V2000
    4.5334    0.2330    0.3167 C   0  0  0  0  0  0  0  0  0  0  0  0
    3.2766   -0.3668    0.9258 C   0  0  0  0  0  0  0  0  0  0  0  0
    2.0125    0.2313    0.3081 C   0  0  0  0  0  0  0  0  0  0  0  0
    0.8387   -0.3723    0.9359 N   0  0  0  0  0  0  0  0  0  0  0  0
   -0.4014   -0.0023    0.3946 C   0  0  0  0  0  0  0  0  0  0  0  0
   -0.8067    1.3455    0.2281 C   0  0  0  0  0  0  0  0  0  0  0  0
   -2.0699    1.7355   -0.2890 C   0  0  0  0  0  0  0  0  0  0  0  0
   -3.0328    0.7822   -0.6631 C   0  0  0  0  0  0  0  0  0  0  0  0
   -4.3110    1.1650   -1.1861 N   0  0  0  0  0  4  0  0  0  0  0  0
   -5.3223    0.7208   -0.6289 O   0  0  0  0  0  1  0  0  0  0  0  0
   -4.3049    1.9723   -2.1264 O   0  0  0  0  0  0  0  0  0  0  0  0
   -2.7026   -0.5744   -0.5272 C   0  0  0  0  0  0  0  0  0  0  0  0
   -3.3682   -1.7070   -0.8203 N   0  0  0  0  0  0  0  0  0  0  0  0
   -2.5093   -2.6595   -0.4417 N   0  0  0  0  0  0  0  0  0  0  0  0
   -1.3141   -2.3013    0.0373 N   0  0  0  0  0  0  0  0  0  0  0  0
   -1.3874   -0.9568    0.0087 C   0  0  0  0  0  0  0  0  0  0  0  0
    4.5707    1.3148    0.4799 H   0  0  0  0  0  0  0  0  0  0  0  0
    5.4243   -0.2101    0.7727 H   0  0  0  0  0  0  0  0  0  0  0  0
    4.5747    0.0460   -0.7611 H   0  0  0  0  0  0  0  0  0  0  0  0
    3.2869   -1.4536    0.7787 H   0  0  0  0  0  0  0  0  0  0  0  0
    3.2799   -0.1942    2.0088 H   0  0  0  0  0  0  0  0  0  0  0  0
    2.0184    1.3160    0.4643 H   0  0  0  0  0  0  0  0  0  0  0  0
    2.0037    0.0393   -0.7721 H   0  0  0  0  0  0  0  0  0  0  0  0
    0.8861   -1.3969    0.9317 H   0  0  0  0  0  0  0  0  0  0  0  0
   -0.1225    2.1381    0.5328 H   0  0  0  0  0  0  0  0  0  0  0  0
   -2.2933    2.7982   -0.3831 H   0  0  0  0  0  0  0  0  0  0  0  0
   -2.7598   -3.6426   -0.5251 H   0  0  0  0  0  0  0  0  0  0  0  0
  1  2  1  0
  2  3  1  0
  3  4  1  0
  4  5  1  0
  5  6  2  0
  6  7  1  0
  7  8  2  0
  8  9  1  0
  9 10  1  0
  9 11  2  0
  8 12  1  0
 12 13  2  0
 13 14  1  0
 14 15  1  0
 15 16  2  0
 16  5  1  0
 16 12  1  0
  1 17  1  0
  1 18  1  0
  1 19  1  0
  2 20  1  0
  2 21  1  0
  3 22  1  0
  3 23  1  0
  4 24  1  0
  6 25  1  0
  7 26  1  0
 14 27  1  0
M  CHG  2   9   1  10  -1
M  END
