
     RDKit          3D

 26 27  0  0  0  0  0  0  0  0999 V2000
   -4.4278   -0.3217    0.1144 C   0  0  0  0  0  0  0  0  0  0  0  0
   -3.2719    0.6333   -0.1350 C   0  0  0  0  0  0  0  0  0  0  0  0
   -1.9251   -0.0879   -0.0778 C   0  0  0  0  0  0  0  0  0  0  0  0
   -0.8531    0.8738   -0.3341 N   0  0  0  0  0  0  0  0  0  0  0  0
    0.4576    0.3819   -0.1991 C   0  0  0  0  0  0  0  0  0  0  0  0
    0.9072   -0.7756   -0.8823 C   0  0  0  0  0  0  0  0  0  0  0  0
    2.2242   -1.2833   -0.7978 C   0  0  0  0  0  0  0  0  0  0  0  0
    3.2021   -0.6429   -0.0213 C   0  0  0  0  0  0  0  0  0  0  0  0
    4.5376   -1.1588    0.0608 N   0  0  0  0  0  4  0  0  0  0  0  0
    5.4611   -0.4252   -0.3121 O   0  0  0  0  0  1  0  0  0  0  0  0
    4.6555   -2.3314    0.4420 O   0  0  0  0  0  0  0  0  0  0  0  0
    2.8619    0.5192    0.7008 C   0  0  0  0  0  0  0  0  0  0  0  0
    3.6292    1.2570    1.5210 N   0  0  0  0  0  0  0  0  0  0  0  0
    2.6872    2.5073    2.0701 S   0  0  0  0  0  0  0  0  0  0  0  0
    1.2444    2.1564    1.3295 N   0  0  0  0  0  0  0  0  0  0  0  0
    1.4494    1.0458    0.5986 C   0  0  0  0  0  0  0  0  0  0  0  0
   -4.4504   -1.1157   -0.6389 H   0  0  0  0  0  0  0  0  0  0  0  0
   -5.3801    0.2159    0.0698 H   0  0  0  0  0  0  0  0  0  0  0  0
   -4.3462   -0.7867    1.1020 H   0  0  0  0  0  0  0  0  0  0  0  0
   -3.2988    1.4360    0.6119 H   0  0  0  0  0  0  0  0  0  0  0  0
   -3.3988    1.1089   -1.1151 H   0  0  0  0  0  0  0  0  0  0  0  0
   -1.9161   -0.8854   -0.8293 H   0  0  0  0  0  0  0  0  0  0  0  0
   -1.7934   -0.5448    0.9109 H   0  0  0  0  0  0  0  0  0  0  0  0
   -0.9427    1.7077    0.2557 H   0  0  0  0  0  0  0  0  0  0  0  0
    0.2086   -1.3014   -1.5344 H   0  0  0  0  0  0  0  0  0  0  0  0
    2.4786   -2.1824   -1.3594 H   0  0  0  0  0  0  0  0  0  0  0  0
  1  2  1  0
  2  3  1  0
  3  4  1  0
  4  5  1  0
  5  6  2  0
  6  7  1  0
  7  8  2  0
  8  9  1  0
  9 10  1  0
  9 11  2  0
  8 12  1  0
 12 13  2  0
 13 14  1  0
 14 15  1  0
 15 16  2  0
 16  5  1  0
 16 12  1  0
  1 17  1  0
  1 18  1  0
  1 19  1  0
  2 20  1  0
  2 21  1  0
  3 22  1  0
  3 23  1  0
  4 24  1  0
  6 25  1  0
  7 26  1  0
M  CHG  2   9   1  10  -1
M  END
