
     RDKit          3D

 47 49  0  0  0  0  0  0  0  0999 V2000
    4.6274    0.5886    1.1709 C   0  0  0  0  0  0  0  0  0  0  0  0
    3.5690    0.7894    0.0873 C   0  0  0  0  0  0  0  0  0  0  0  0
    3.2429   -0.3789   -0.7540 N   0  0  0  0  0  0  0  0  0  0  0  0
    2.6996   -1.5092    0.0201 C   0  0  0  0  0  0  0  0  0  0  0  0
    1.4073   -1.1813    0.6431 C   0  0  0  0  0  0  0  0  0  0  0  0
    0.3468   -0.9053    1.1368 C   0  0  0  0  0  0  0  0  0  0  0  0
   -0.9578   -0.5539    1.7315 C   0  0  0  0  0  0  0  0  0  0  0  0
   -1.8009    0.4004    0.8552 C   0  0  0  0  0  0  0  0  0  0  0  0
   -1.1153    1.6302    0.6300 O   0  0  0  0  0  0  0  0  0  0  0  0
   -3.1225    0.7294    1.5522 C   0  0  0  0  0  0  0  0  0  0  0  0
   -3.3241    1.3660    2.7702 C   0  0  0  0  0  0  0  0  0  0  0  0
   -4.6351    1.5411    3.2166 C   0  0  0  0  0  0  0  0  0  0  0  0
   -5.7197    1.0872    2.4485 C   0  0  0  0  0  0  0  0  0  0  0  0
   -5.5126    0.4584    1.2167 C   0  0  0  0  0  0  0  0  0  0  0  0
   -4.2113    0.2868    0.7715 C   0  0  0  0  0  0  0  0  0  0  0  0
   -3.7068   -0.2908   -0.4558 C   0  0  0  0  0  0  0  0  0  0  0  0
   -4.3898   -0.8319   -1.5351 C   0  0  0  0  0  0  0  0  0  0  0  0
   -3.6522   -1.3001   -2.6259 C   0  0  0  0  0  0  0  0  0  0  0  0
   -2.2509   -1.2173   -2.6323 C   0  0  0  0  0  0  0  0  0  0  0  0
   -1.5613   -0.6716   -1.5463 C   0  0  0  0  0  0  0  0  0  0  0  0
   -2.2945   -0.2207   -0.4556 C   0  0  0  0  0  0  0  0  0  0  0  0
    4.3807   -0.8467   -1.5782 C   0  0  0  0  0  0  0  0  0  0  0  0
    4.9710    0.1998   -2.5418 C   0  0  0  0  0  0  0  0  0  0  0  0
    5.9258    1.0267   -1.8816 O   0  0  0  0  0  0  0  0  0  0  0  0
    4.8266    1.5428    1.6718 H   0  0  0  0  0  0  0  0  0  0  0  0
    4.2937   -0.1174    1.9370 H   0  0  0  0  0  0  0  0  0  0  0  0
    5.5766    0.2327    0.7611 H   0  0  0  0  0  0  0  0  0  0  0  0
    2.6535    1.1538    0.5697 H   0  0  0  0  0  0  0  0  0  0  0  0
    3.8695    1.6273   -0.5526 H   0  0  0  0  0  0  0  0  0  0  0  0
    3.4107   -1.8660    0.7747 H   0  0  0  0  0  0  0  0  0  0  0  0
    2.5179   -2.3571   -0.6556 H   0  0  0  0  0  0  0  0  0  0  0  0
   -1.5158   -1.4762    1.9404 H   0  0  0  0  0  0  0  0  0  0  0  0
   -0.7547   -0.0796    2.7006 H   0  0  0  0  0  0  0  0  0  0  0  0
   -0.6786    1.5504   -0.2361 H   0  0  0  0  0  0  0  0  0  0  0  0
   -2.4844    1.7300    3.3551 H   0  0  0  0  0  0  0  0  0  0  0  0
   -4.8195    2.0394    4.1654 H   0  0  0  0  0  0  0  0  0  0  0  0
   -6.7339    1.2353    2.8118 H   0  0  0  0  0  0  0  0  0  0  0  0
   -6.3597    0.1224    0.6277 H   0  0  0  0  0  0  0  0  0  0  0  0
   -5.4730   -0.8895   -1.5451 H   0  0  0  0  0  0  0  0  0  0  0  0
   -4.1692   -1.7273   -3.4832 H   0  0  0  0  0  0  0  0  0  0  0  0
   -1.6958   -1.5800   -3.4943 H   0  0  0  0  0  0  0  0  0  0  0  0
   -0.4780   -0.6096   -1.5686 H   0  0  0  0  0  0  0  0  0  0  0  0
    4.0103   -1.6658   -2.2101 H   0  0  0  0  0  0  0  0  0  0  0  0
    5.1768   -1.2591   -0.9446 H   0  0  0  0  0  0  0  0  0  0  0  0
    5.4938   -0.3132   -3.3570 H   0  0  0  0  0  0  0  0  0  0  0  0
    4.1875    0.8276   -2.9803 H   0  0  0  0  0  0  0  0  0  0  0  0
    6.2299    1.6827   -2.5318 H   0  0  0  0  0  0  0  0  0  0  0  0
  1  2  1  0
  2  3  1  0
  3  4  1  0
  4  5  1  0
  5  6  3  0
  6  7  1  0
  7  8  1  0
  8  9  1  0
  8 10  1  0
 10 11  2  0
 11 12  1  0
 12 13  2  0
 13 14  1  0
 14 15  2  0
 15 16  1  0
 16 17  2  0
 17 18  1  0
 18 19  2  0
 19 20  1  0
 20 21  2  0
  3 22  1  0
 22 23  1  0
 23 24  1  0
 21  8  1  0
 15 10  1  0
 21 16  1  0
  1 25  1  0
  1 26  1  0
  1 27  1  0
  2 28  1  0
  2 29  1  0
  4 30  1  0
  4 31  1  0
  7 32  1  0
  7 33  1  0
  9 34  1  0
 11 35  1  0
 12 36  1  0
 13 37  1  0
 14 38  1  0
 17 39  1  0
 18 40  1  0
 19 41  1  0
 20 42  1  0
 22 43  1  0
 22 44  1  0
 23 45  1  0
 23 46  1  0
 24 47  1  0
M  END
