
     RDKit          3D

 40 41  0  0  0  0  0  0  0  0999 V2000
    4.2979   -0.4405    1.8976 C   0  0  0  0  0  0  0  0  0  0  0  0
    3.5356    0.8066    1.4745 C   0  0  0  0  0  0  0  0  0  0  0  0
    2.7605    0.6197    0.2447 N   0  0  0  0  0  0  0  0  0  0  0  0
    3.3650    1.0643   -1.0149 C   0  0  0  0  0  0  0  0  0  0  0  0
    4.2667    0.0141   -1.6422 C   0  0  0  0  0  0  0  0  0  0  0  0
    1.5367   -0.0509    0.3452 C   0  0  0  0  0  0  0  0  0  0  0  0
    1.1214   -0.4691    1.4283 O   0  0  0  0  0  0  0  0  0  0  0  0
    0.7536   -0.2679   -0.9406 C   0  0  0  0  0  0  0  0  0  0  0  0
   -0.5376   -0.8963   -0.7131 N   0  0  0  0  0  0  0  0  0  0  0  0
   -0.8101   -2.2349   -0.8368 C   0  0  0  0  0  0  0  0  0  0  0  0
   -2.0827   -2.4958   -0.6140 N   0  0  0  0  0  0  0  0  0  0  0  0
   -2.6284   -1.2849   -0.3113 C   0  0  0  0  0  0  0  0  0  0  0  0
   -1.7107   -0.2808   -0.3765 C   0  0  0  0  0  0  0  0  0  0  0  0
   -2.0270    1.0797   -0.1152 C   0  0  0  0  0  0  0  0  0  0  0  0
   -1.2095    1.9875   -0.2390 O   0  0  0  0  0  0  0  0  0  0  0  0
   -3.3603    1.2633    0.2624 N   0  0  0  0  0  0  0  0  0  0  0  0
   -3.7994    2.6107    0.5664 C   0  0  0  0  0  0  0  0  0  0  0  0
   -4.3478    0.2571    0.3021 C   0  0  0  0  0  0  0  0  0  0  0  0
   -5.5212    0.5296    0.5739 O   0  0  0  0  0  0  0  0  0  0  0  0
   -3.9421   -1.0461    0.0125 N   0  0  0  0  0  0  0  0  0  0  0  0
   -4.8913   -2.1430    0.0539 C   0  0  0  0  0  0  0  0  0  0  0  0
    3.6260   -1.2917    2.0449 H   0  0  0  0  0  0  0  0  0  0  0  0
    4.8244   -0.2576    2.8396 H   0  0  0  0  0  0  0  0  0  0  0  0
    5.0405   -0.7298    1.1497 H   0  0  0  0  0  0  0  0  0  0  0  0
    2.8450    1.0885    2.2784 H   0  0  0  0  0  0  0  0  0  0  0  0
    4.2260    1.6466    1.3424 H   0  0  0  0  0  0  0  0  0  0  0  0
    2.5783    1.3238   -1.7277 H   0  0  0  0  0  0  0  0  0  0  0  0
    3.9267    1.9867   -0.8301 H   0  0  0  0  0  0  0  0  0  0  0  0
    3.7454   -0.9395   -1.7688 H   0  0  0  0  0  0  0  0  0  0  0  0
    4.6102    0.3508   -2.6255 H   0  0  0  0  0  0  0  0  0  0  0  0
    5.1525   -0.1656   -1.0271 H   0  0  0  0  0  0  0  0  0  0  0  0
    1.3214   -0.9242   -1.6076 H   0  0  0  0  0  0  0  0  0  0  0  0
    0.5649    0.6803   -1.4494 H   0  0  0  0  0  0  0  0  0  0  0  0
   -0.0540   -2.9679   -1.0885 H   0  0  0  0  0  0  0  0  0  0  0  0
   -2.9616    3.3007    0.6958 H   0  0  0  0  0  0  0  0  0  0  0  0
   -4.3956    2.6065    1.4847 H   0  0  0  0  0  0  0  0  0  0  0  0
   -4.4299    2.9643   -0.2559 H   0  0  0  0  0  0  0  0  0  0  0  0
   -4.9461   -2.6054   -0.9367 H   0  0  0  0  0  0  0  0  0  0  0  0
   -4.5517   -2.8828    0.7859 H   0  0  0  0  0  0  0  0  0  0  0  0
   -5.8918   -1.8063    0.3378 H   0  0  0  0  0  0  0  0  0  0  0  0
  1  2  1  0
  2  3  1  0
  3  4  1  0
  4  5  1  0
  3  6  1  0
  6  7  2  0
  6  8  1  0
  8  9  1  0
  9 10  1  0
 10 11  2  0
 11 12  1  0
 12 13  2  0
 13 14  1  0
 14 15  2  0
 14 16  1  0
 16 17  1  0
 16 18  1  0
 18 19  2  0
 18 20  1  0
 20 21  1  0
 13  9  1  0
 20 12  1  0
  1 22  1  0
  1 23  1  0
  1 24  1  0
  2 25  1  0
  2 26  1  0
  4 27  1  0
  4 28  1  0
  5 29  1  0
  5 30  1  0
  5 31  1  0
  8 32  1  0
  8 33  1  0
 10 34  1  0
 17 35  1  0
 17 36  1  0
 17 37  1  0
 21 38  1  0
 21 39  1  0
 21 40  1  0
M  END
