
     RDKit          3D

 45 47  0  0  0  0  0  0  0  0999 V2000
    1.7104    1.4987    1.9797 C   0  0  0  0  0  0  0  0  0  0  0  0
    2.8102    0.4574    2.1186 C   0  0  0  0  0  0  0  0  0  0  0  0
    2.8351   -0.4622    0.9809 N   0  0  0  0  0  0  0  0  0  0  0  0
    3.6701   -0.0702   -0.1588 C   0  0  0  0  0  0  0  0  0  0  0  0
    5.0529   -0.6947   -0.0767 C   0  0  0  0  0  0  0  0  0  0  0  0
    2.0037   -1.5779    1.0219 C   0  0  0  0  0  0  0  0  0  0  0  0
    1.2473   -1.7729    1.9809 O   0  0  0  0  0  0  0  0  0  0  0  0
    2.0214   -2.5685   -0.1407 C   0  0  0  0  0  0  0  0  0  0  0  0
    0.3594   -2.7374   -0.8655 S   0  0  0  0  0  0  0  0  0  0  0  0
    0.0180   -1.0762   -1.1911 C   0  0  0  0  0  0  0  0  0  0  0  0
    0.7160   -0.3073   -1.9913 N   0  0  0  0  0  0  0  0  0  0  0  0
    0.1818    0.9538   -1.9202 N   0  0  0  0  0  0  0  0  0  0  0  0
   -0.8370    0.9255   -1.0804 C   0  0  0  0  0  0  0  0  0  0  0  0
   -1.6359    2.0737   -0.7747 C   0  0  0  0  0  0  0  0  0  0  0  0
   -1.4739    3.3676   -1.2475 C   0  0  0  0  0  0  0  0  0  0  0  0
   -2.5030    4.1595   -0.6841 C   0  0  0  0  0  0  0  0  0  0  0  0
   -3.2408    3.3112    0.1028 C   0  0  0  0  0  0  0  0  0  0  0  0
   -2.7268    2.0571    0.0575 O   0  0  0  0  0  0  0  0  0  0  0  0
   -0.9741   -0.3525   -0.5855 N   0  0  0  0  0  0  0  0  0  0  0  0
   -1.9125   -0.8209    0.4147 C   0  0  0  0  0  0  0  0  0  0  0  0
   -3.1357   -1.3731   -0.2218 C   0  0  0  0  0  0  0  0  0  0  0  0
   -4.1294   -0.8392   -1.0187 C   0  0  0  0  0  0  0  0  0  0  0  0
   -5.0298   -1.8952   -1.2998 C   0  0  0  0  0  0  0  0  0  0  0  0
   -4.5356   -3.0021   -0.6530 C   0  0  0  0  0  0  0  0  0  0  0  0
   -3.3902   -2.6947    0.0065 O   0  0  0  0  0  0  0  0  0  0  0  0
    1.7239    2.1810    2.8352 H   0  0  0  0  0  0  0  0  0  0  0  0
    1.8386    2.0901    1.0673 H   0  0  0  0  0  0  0  0  0  0  0  0
    0.7227    1.0283    1.9347 H   0  0  0  0  0  0  0  0  0  0  0  0
    2.6539   -0.1118    3.0413 H   0  0  0  0  0  0  0  0  0  0  0  0
    3.7881    0.9427    2.2055 H   0  0  0  0  0  0  0  0  0  0  0  0
    3.1886   -0.3521   -1.0964 H   0  0  0  0  0  0  0  0  0  0  0  0
    3.7533    1.0221   -0.1735 H   0  0  0  0  0  0  0  0  0  0  0  0
    5.5701   -0.3817    0.8359 H   0  0  0  0  0  0  0  0  0  0  0  0
    4.9953   -1.7877   -0.0654 H   0  0  0  0  0  0  0  0  0  0  0  0
    5.6593   -0.3898   -0.9349 H   0  0  0  0  0  0  0  0  0  0  0  0
    2.7342   -2.3250   -0.9256 H   0  0  0  0  0  0  0  0  0  0  0  0
    2.3218   -3.5403    0.2638 H   0  0  0  0  0  0  0  0  0  0  0  0
   -0.6972    3.6888   -1.9296 H   0  0  0  0  0  0  0  0  0  0  0  0
   -2.6840    5.2141   -0.8370 H   0  0  0  0  0  0  0  0  0  0  0  0
   -4.1149    3.4378    0.7273 H   0  0  0  0  0  0  0  0  0  0  0  0
   -1.4152   -1.5749    1.0334 H   0  0  0  0  0  0  0  0  0  0  0  0
   -2.1554   -0.0005    1.0942 H   0  0  0  0  0  0  0  0  0  0  0  0
   -4.1951    0.1844   -1.3609 H   0  0  0  0  0  0  0  0  0  0  0  0
   -5.9279   -1.8554   -1.9005 H   0  0  0  0  0  0  0  0  0  0  0  0
   -4.8618   -4.0296   -0.5686 H   0  0  0  0  0  0  0  0  0  0  0  0
  1  2  1  0
  2  3  1  0
  3  4  1  0
  4  5  1  0
  3  6  1  0
  6  7  2  0
  6  8  1  0
  8  9  1  0
  9 10  1  0
 10 11  2  0
 11 12  1  0
 12 13  2  0
 13 14  1  0
 14 15  2  0
 15 16  1  0
 16 17  2  0
 17 18  1  0
 13 19  1  0
 19 20  1  0
 20 21  1  0
 21 22  2  0
 22 23  1  0
 23 24  2  0
 24 25  1  0
 19 10  1  0
 25 21  1  0
 18 14  1  0
  1 26  1  0
  1 27  1  0
  1 28  1  0
  2 29  1  0
  2 30  1  0
  4 31  1  0
  4 32  1  0
  5 33  1  0
  5 34  1  0
  5 35  1  0
  8 36  1  0
  8 37  1  0
 15 38  1  0
 16 39  1  0
 17 40  1  0
 20 41  1  0
 20 42  1  0
 22 43  1  0
 23 44  1  0
 24 45  1  0
M  END
