
     RDKit          3D

 45 47  0  0  0  0  0  0  0  0999 V2000
   -4.7018   -0.7639   -2.0195 C   0  0  0  0  0  0  0  0  0  0  0  0
   -4.2909    0.4574   -1.2093 C   0  0  0  0  0  0  0  0  0  0  0  0
   -3.2868    0.1055   -0.1967 N   0  0  0  0  0  0  0  0  0  0  0  0
   -3.8148   -0.2611    1.1240 C   0  0  0  0  0  0  0  0  0  0  0  0
   -3.9030    0.9551    2.0351 C   0  0  0  0  0  0  0  0  0  0  0  0
   -1.9205    0.1218   -0.4700 C   0  0  0  0  0  0  0  0  0  0  0  0
   -1.4191    0.3397   -1.7776 C   0  0  0  0  0  0  0  0  0  0  0  0
   -0.0481    0.3629   -2.0869 C   0  0  0  0  0  0  0  0  0  0  0  0
   -0.9561   -0.0774    0.5370 C   0  0  0  0  0  0  0  0  0  0  0  0
    0.4064   -0.0546    0.2389 C   0  0  0  0  0  0  0  0  0  0  0  0
    0.8615    0.1651   -1.0708 C   0  0  0  0  0  0  0  0  0  0  0  0
    2.3073    0.1369   -1.0869 C   0  0  0  0  0  0  0  0  0  0  0  0
    3.1964    0.3009   -2.1377 C   0  0  0  0  0  0  0  0  0  0  0  0
    4.5670    0.2252   -1.8701 C   0  0  0  0  0  0  0  0  0  0  0  0
    5.0285   -0.0122   -0.5619 C   0  0  0  0  0  0  0  0  0  0  0  0
    6.4798   -0.0890   -0.2972 C   0  0  0  0  0  0  0  0  0  0  0  0
    7.3146    0.0473   -1.1827 O   0  0  0  0  0  0  0  0  0  0  0  0
    4.1351   -0.1783    0.5020 C   0  0  0  0  0  0  0  0  0  0  0  0
    2.7760   -0.1014    0.2257 C   0  0  0  0  0  0  0  0  0  0  0  0
    1.5919   -0.2436    1.1878 C   0  0  0  0  0  0  0  0  0  0  0  0
    1.5688   -1.6367    1.8270 C   0  0  0  0  0  0  0  0  0  0  0  0
    1.6205    0.8532    2.2584 C   0  0  0  0  0  0  0  0  0  0  0  0
   -5.1200   -1.5423   -1.3728 H   0  0  0  0  0  0  0  0  0  0  0  0
   -5.4639   -0.4896   -2.7556 H   0  0  0  0  0  0  0  0  0  0  0  0
   -3.8538   -1.2000   -2.5560 H   0  0  0  0  0  0  0  0  0  0  0  0
   -5.1850    0.8610   -0.7167 H   0  0  0  0  0  0  0  0  0  0  0  0
   -3.9460    1.2658   -1.8635 H   0  0  0  0  0  0  0  0  0  0  0  0
   -4.8219   -0.6835    1.0140 H   0  0  0  0  0  0  0  0  0  0  0  0
   -3.2279   -1.0600    1.5909 H   0  0  0  0  0  0  0  0  0  0  0  0
   -2.9217    1.4083    2.2048 H   0  0  0  0  0  0  0  0  0  0  0  0
   -4.5523    1.7238    1.6030 H   0  0  0  0  0  0  0  0  0  0  0  0
   -4.3170    0.6693    3.0071 H   0  0  0  0  0  0  0  0  0  0  0  0
   -2.0976    0.4891   -2.6121 H   0  0  0  0  0  0  0  0  0  0  0  0
    0.2733    0.5321   -3.1088 H   0  0  0  0  0  0  0  0  0  0  0  0
   -1.2436   -0.2411    1.5686 H   0  0  0  0  0  0  0  0  0  0  0  0
    2.8476    0.4843   -3.1487 H   0  0  0  0  0  0  0  0  0  0  0  0
    5.2802    0.3515   -2.6830 H   0  0  0  0  0  0  0  0  0  0  0  0
    6.7796   -0.2771    0.7474 H   0  0  0  0  0  0  0  0  0  0  0  0
    4.4843   -0.3615    1.5127 H   0  0  0  0  0  0  0  0  0  0  0  0
    0.6860   -1.7695    2.4629 H   0  0  0  0  0  0  0  0  0  0  0  0
    1.5486   -2.4294    1.0691 H   0  0  0  0  0  0  0  0  0  0  0  0
    2.4539   -1.8038    2.4516 H   0  0  0  0  0  0  0  0  0  0  0  0
    2.5074    0.7649    2.8964 H   0  0  0  0  0  0  0  0  0  0  0  0
    0.7395    0.7999    2.9083 H   0  0  0  0  0  0  0  0  0  0  0  0
    1.6373    1.8548    1.8113 H   0  0  0  0  0  0  0  0  0  0  0  0
  1  2  1  0
  2  3  1  0
  3  4  1  0
  4  5  1  0
  3  6  1  0
  6  7  2  0
  7  8  1  0
  6  9  1  0
  9 10  2  0
 10 11  1  0
 11 12  1  0
 12 13  2  0
 13 14  1  0
 14 15  2  0
 15 16  1  0
 16 17  2  0
 15 18  1  0
 12 19  1  0
 19 20  1  0
 20 21  1  0
 20 22  1  0
 11  8  2  0
 20 10  1  0
 19 18  2  0
  1 23  1  0
  1 24  1  0
  1 25  1  0
  2 26  1  0
  2 27  1  0
  4 28  1  0
  4 29  1  0
  5 30  1  0
  5 31  1  0
  5 32  1  0
  7 33  1  0
  8 34  1  0
  9 35  1  0
 13 36  1  0
 14 37  1  0
 16 38  1  0
 18 39  1  0
 21 40  1  0
 21 41  1  0
 21 42  1  0
 22 43  1  0
 22 44  1  0
 22 45  1  0
M  END
