
     RDKit          3D

 44 44  0  0  0  0  0  0  0  0999 V2000
    3.3424   -0.7141   -1.5557 C   0  0  0  0  0  0  0  0  0  0  0  0
    3.2770   -1.1410   -0.0965 C   0  0  0  0  0  0  0  0  0  0  0  0
    2.7238   -0.0946    0.7506 N   0  0  0  0  0  0  0  0  0  0  0  0
    3.6064    0.8031    1.4834 C   0  0  0  0  0  0  0  0  0  0  0  0
    3.8117    2.1200    0.7488 C   0  0  0  0  0  0  0  0  0  0  0  0
    1.3544    0.0727    0.8315 C   0  0  0  0  0  0  0  0  0  0  0  0
    0.8725    1.0276    1.6104 N   0  0  0  0  0  0  0  0  0  0  0  0
   -0.4472    1.1377    1.6348 C   0  0  0  0  0  0  0  0  0  0  0  0
   -1.0999    2.3860    2.7248 S   0  0  0  0  0  0  0  0  0  0  0  0
   -2.8112    2.4752    2.1246 C   0  0  0  0  0  0  0  0  0  0  0  0
   -2.9003    2.9791    0.7044 C   0  0  0  0  0  0  0  0  0  0  0  0
   -2.0458    3.5349    0.0348 O   0  0  0  0  0  0  0  0  0  0  0  0
   -4.1372    2.7996    0.1859 O   0  0  0  0  0  0  0  0  0  0  0  0
   -1.2986    0.3716    0.9664 N   0  0  0  0  0  0  0  0  0  0  0  0
   -0.7476   -0.5677    0.2112 C   0  0  0  0  0  0  0  0  0  0  0  0
   -1.5735   -1.4150   -0.5055 N   0  0  0  0  0  0  0  0  0  0  0  0
   -0.9791   -2.3793   -1.4226 C   0  0  0  0  0  0  0  0  0  0  0  0
   -0.6168   -3.6635   -0.6909 C   0  0  0  0  0  0  0  0  0  0  0  0
   -2.9981   -1.1307   -0.5969 C   0  0  0  0  0  0  0  0  0  0  0  0
   -3.2900   -0.1195   -1.6967 C   0  0  0  0  0  0  0  0  0  0  0  0
    0.5679   -0.7388    0.1307 N   0  0  0  0  0  0  0  0  0  0  0  0
    3.7503   -1.5257   -2.1666 H   0  0  0  0  0  0  0  0  0  0  0  0
    2.3539   -0.4597   -1.9501 H   0  0  0  0  0  0  0  0  0  0  0  0
    3.9886    0.1590   -1.6848 H   0  0  0  0  0  0  0  0  0  0  0  0
    2.7019   -2.0709   -0.0035 H   0  0  0  0  0  0  0  0  0  0  0  0
    4.2907   -1.3952    0.2366 H   0  0  0  0  0  0  0  0  0  0  0  0
    4.5853    0.3297    1.6270 H   0  0  0  0  0  0  0  0  0  0  0  0
    3.2270    0.9927    2.4954 H   0  0  0  0  0  0  0  0  0  0  0  0
    2.8668    2.6487    0.5901 H   0  0  0  0  0  0  0  0  0  0  0  0
    4.4710    2.7743    1.3280 H   0  0  0  0  0  0  0  0  0  0  0  0
    4.2740    1.9605   -0.2297 H   0  0  0  0  0  0  0  0  0  0  0  0
   -3.3569    3.1762    2.7636 H   0  0  0  0  0  0  0  0  0  0  0  0
   -3.2861    1.4926    2.2044 H   0  0  0  0  0  0  0  0  0  0  0  0
   -4.0598    3.1787   -0.7156 H   0  0  0  0  0  0  0  0  0  0  0  0
   -0.1017   -1.9685   -1.9372 H   0  0  0  0  0  0  0  0  0  0  0  0
   -1.6928   -2.6301   -2.2172 H   0  0  0  0  0  0  0  0  0  0  0  0
   -1.4980   -4.1016   -0.2104 H   0  0  0  0  0  0  0  0  0  0  0  0
    0.1342   -3.4877    0.0856 H   0  0  0  0  0  0  0  0  0  0  0  0
   -0.2109   -4.3978   -1.3937 H   0  0  0  0  0  0  0  0  0  0  0  0
   -3.5405   -2.0589   -0.8160 H   0  0  0  0  0  0  0  0  0  0  0  0
   -3.4034   -0.7763    0.3587 H   0  0  0  0  0  0  0  0  0  0  0  0
   -2.7661    0.8254   -1.5234 H   0  0  0  0  0  0  0  0  0  0  0  0
   -4.3633    0.0891   -1.7439 H   0  0  0  0  0  0  0  0  0  0  0  0
   -2.9751   -0.4978   -2.6747 H   0  0  0  0  0  0  0  0  0  0  0  0
  1  2  1  0
  2  3  1  0
  3  4  1  0
  4  5  1  0
  3  6  1  0
  6  7  2  0
  7  8  1  0
  8  9  1  0
  9 10  1  0
 10 11  1  0
 11 12  2  0
 11 13  1  0
  8 14  2  0
 14 15  1  0
 15 16  1  0
 16 17  1  0
 17 18  1  0
 16 19  1  0
 19 20  1  0
 15 21  2  0
 21  6  1  0
  1 22  1  0
  1 23  1  0
  1 24  1  0
  2 25  1  0
  2 26  1  0
  4 27  1  0
  4 28  1  0
  5 29  1  0
  5 30  1  0
  5 31  1  0
 10 32  1  0
 10 33  1  0
 13 34  1  0
 17 35  1  0
 17 36  1  0
 18 37  1  0
 18 38  1  0
 18 39  1  0
 19 40  1  0
 19 41  1  0
 20 42  1  0
 20 43  1  0
 20 44  1  0
M  END
