
     RDKit          3D

 36 37  0  0  0  0  0  0  0  0999 V2000
   -0.2373   -3.3236   -1.4470 C   0  0  0  0  0  0  0  0  0  0  0  0
   -0.8177   -2.3406   -2.4572 C   0  0  0  0  0  0  0  0  0  0  0  0
   -1.4583   -1.1615   -1.8392 N   0  0  0  0  0  0  0  0  0  0  0  0
   -2.6463   -1.4600   -1.0193 C   0  0  0  0  0  0  0  0  0  0  0  0
   -3.5719   -0.2525   -0.9333 C   0  0  0  0  0  0  0  0  0  0  0  0
   -0.5347   -0.2856   -1.2349 C   0  0  0  0  0  0  0  0  0  0  0  0
   -0.4256   -0.3040    0.1173 N   0  0  0  0  0  0  0  0  0  0  0  0
    0.4508    0.5066    0.7377 C   0  0  0  0  0  0  0  0  0  0  0  0
    0.5589    0.4714    2.1210 C   0  0  0  0  0  0  0  0  0  0  0  0
    1.4533    1.2905    2.8192 C   0  0  0  0  0  0  0  0  0  0  0  0
    1.4341    1.1304    4.1772 O   0  0  0  0  0  0  0  0  0  0  0  0
    2.3197    1.9436    4.9368 C   0  0  0  0  0  0  0  0  0  0  0  0
    2.2642    2.1720    2.1109 C   0  0  0  0  0  0  0  0  0  0  0  0
    2.1750    2.2278    0.7190 C   0  0  0  0  0  0  0  0  0  0  0  0
    1.2732    1.3993    0.0310 C   0  0  0  0  0  0  0  0  0  0  0  0
    1.1538    1.4317   -1.3608 C   0  0  0  0  0  0  0  0  0  0  0  0
    0.2419    0.5885   -2.0035 C   0  0  0  0  0  0  0  0  0  0  0  0
    0.1057    0.6783   -3.4256 C   0  0  0  0  0  0  0  0  0  0  0  0
    0.0490    0.7773   -4.5816 N   0  0  0  0  0  0  0  0  0  0  0  0
    0.1946   -4.1833   -1.9697 H   0  0  0  0  0  0  0  0  0  0  0  0
    0.5558   -2.8662   -0.8475 H   0  0  0  0  0  0  0  0  0  0  0  0
   -1.0044   -3.7005   -0.7637 H   0  0  0  0  0  0  0  0  0  0  0  0
   -0.0292   -2.0395   -3.1562 H   0  0  0  0  0  0  0  0  0  0  0  0
   -1.5664   -2.8610   -3.0672 H   0  0  0  0  0  0  0  0  0  0  0  0
   -3.2137   -2.2689   -1.4968 H   0  0  0  0  0  0  0  0  0  0  0  0
   -2.3842   -1.8194   -0.0167 H   0  0  0  0  0  0  0  0  0  0  0  0
   -3.1041    0.5815   -0.4010 H   0  0  0  0  0  0  0  0  0  0  0  0
   -4.4894   -0.5183   -0.3989 H   0  0  0  0  0  0  0  0  0  0  0  0
   -3.8484    0.0998   -1.9327 H   0  0  0  0  0  0  0  0  0  0  0  0
   -0.0744   -0.2172    2.6759 H   0  0  0  0  0  0  0  0  0  0  0  0
    2.0868    3.0059    4.8098 H   0  0  0  0  0  0  0  0  0  0  0  0
    3.3639    1.7340    4.6823 H   0  0  0  0  0  0  0  0  0  0  0  0
    2.1782    1.6956    5.9932 H   0  0  0  0  0  0  0  0  0  0  0  0
    2.9725    2.8272    2.6071 H   0  0  0  0  0  0  0  0  0  0  0  0
    2.8131    2.9222    0.1765 H   0  0  0  0  0  0  0  0  0  0  0  0
    1.7614    2.1184   -1.9472 H   0  0  0  0  0  0  0  0  0  0  0  0
  1  2  1  0
  2  3  1  0
  3  4  1  0
  4  5  1  0
  3  6  1  0
  6  7  2  0
  7  8  1  0
  8  9  2  0
  9 10  1  0
 10 11  1  0
 11 12  1  0
 10 13  2  0
 13 14  1  0
 14 15  2  0
 15 16  1  0
 16 17  2  0
 17 18  1  0
 18 19  3  0
 17  6  1  0
 15  8  1  0
  1 20  1  0
  1 21  1  0
  1 22  1  0
  2 23  1  0
  2 24  1  0
  4 25  1  0
  4 26  1  0
  5 27  1  0
  5 28  1  0
  5 29  1  0
  9 30  1  0
 12 31  1  0
 12 32  1  0
 12 33  1  0
 13 34  1  0
 14 35  1  0
 16 36  1  0
M  END
