
     RDKit          3D

 41 43  0  0  0  0  0  0  0  0999 V2000
    4.4914    2.0399    1.8685 C   0  0  0  0  0  0  0  0  0  0  0  0
    3.2171    1.2639    1.5495 C   0  0  0  0  0  0  0  0  0  0  0  0
    3.3099    0.5169    0.2819 N   0  0  0  0  0  0  0  0  0  0  0  0
    4.1875   -0.6581    0.3966 C   0  0  0  0  0  0  0  0  0  0  0  0
    4.4601   -1.3454   -0.9378 C   0  0  0  0  0  0  0  0  0  0  0  0
    1.9628    0.2101   -0.2467 C   0  0  0  0  0  0  0  0  0  0  0  0
    1.0921   -0.7765    0.5651 C   0  0  0  0  0  0  0  0  0  0  0  0
   -0.2755   -0.8743    0.0215 N   0  0  0  0  0  0  0  0  0  0  0  0
   -0.6269   -1.8397   -0.9194 C   0  0  0  0  0  0  0  0  0  0  0  0
    0.3592   -3.0347   -1.5626 S   0  0  0  0  0  0  0  0  0  0  0  0
   -1.9179   -1.8228   -1.3731 N   0  0  0  0  0  0  0  0  0  0  0  0
   -2.8828   -0.9066   -0.9628 C   0  0  0  0  0  0  0  0  0  0  0  0
   -4.1766   -0.9839   -1.4845 C   0  0  0  0  0  0  0  0  0  0  0  0
   -5.0914   -0.0494   -1.0458 C   0  0  0  0  0  0  0  0  0  0  0  0
   -4.7575    0.9252   -0.1332 C   0  0  0  0  0  0  0  0  0  0  0  0
   -3.4885    1.0218    0.3942 C   0  0  0  0  0  0  0  0  0  0  0  0
   -2.5412    0.0829   -0.0349 C   0  0  0  0  0  0  0  0  0  0  0  0
   -1.1596    0.1178    0.4764 C   0  0  0  0  0  0  0  0  0  0  0  0
   -0.8447    1.0092    1.2626 O   0  0  0  0  0  0  0  0  0  0  0  0
   -5.8051    1.7399    0.1601 O   0  0  0  0  0  0  0  0  0  0  0  0
   -6.8381    1.1711   -0.6713 C   0  0  0  0  0  0  0  0  0  0  0  0
   -6.3906    0.0329   -1.4388 O   0  0  0  0  0  0  0  0  0  0  0  0
    4.3252    2.6848    2.7380 H   0  0  0  0  0  0  0  0  0  0  0  0
    5.3281    1.3781    2.1093 H   0  0  0  0  0  0  0  0  0  0  0  0
    4.7841    2.6797    1.0294 H   0  0  0  0  0  0  0  0  0  0  0  0
    2.9691    0.6011    2.3873 H   0  0  0  0  0  0  0  0  0  0  0  0
    2.4113    2.0059    1.4810 H   0  0  0  0  0  0  0  0  0  0  0  0
    5.1651   -0.3490    0.7818 H   0  0  0  0  0  0  0  0  0  0  0  0
    3.7891   -1.3869    1.1123 H   0  0  0  0  0  0  0  0  0  0  0  0
    4.8259   -0.6308   -1.6826 H   0  0  0  0  0  0  0  0  0  0  0  0
    3.5686   -1.8375   -1.3352 H   0  0  0  0  0  0  0  0  0  0  0  0
    5.2276   -2.1160   -0.8091 H   0  0  0  0  0  0  0  0  0  0  0  0
    2.0561   -0.1542   -1.2768 H   0  0  0  0  0  0  0  0  0  0  0  0
    1.4201    1.1582   -0.3617 H   0  0  0  0  0  0  0  0  0  0  0  0
    1.5568   -1.7657    0.5930 H   0  0  0  0  0  0  0  0  0  0  0  0
    1.0234   -0.4470    1.6082 H   0  0  0  0  0  0  0  0  0  0  0  0
   -2.1624   -2.5358   -2.0527 H   0  0  0  0  0  0  0  0  0  0  0  0
   -4.4671   -1.7397   -2.2048 H   0  0  0  0  0  0  0  0  0  0  0  0
   -3.2382    1.7961    1.1119 H   0  0  0  0  0  0  0  0  0  0  0  0
   -7.1961    1.9419   -1.3634 H   0  0  0  0  0  0  0  0  0  0  0  0
   -7.6707    0.8570   -0.0314 H   0  0  0  0  0  0  0  0  0  0  0  0
  1  2  1  0
  2  3  1  0
  3  4  1  0
  4  5  1  0
  3  6  1  0
  6  7  1  0
  7  8  1  0
  8  9  1  0
  9 10  2  0
  9 11  1  0
 11 12  1  0
 12 13  2  0
 13 14  1  0
 14 15  2  0
 15 16  1  0
 16 17  2  0
 17 18  1  0
 18 19  2  0
 15 20  1  0
 20 21  1  0
 21 22  1  0
 18  8  1  0
 17 12  1  0
 22 14  1  0
  1 23  1  0
  1 24  1  0
  1 25  1  0
  2 26  1  0
  2 27  1  0
  4 28  1  0
  4 29  1  0
  5 30  1  0
  5 31  1  0
  5 32  1  0
  6 33  1  0
  6 34  1  0
  7 35  1  0
  7 36  1  0
 11 37  1  0
 13 38  1  0
 16 39  1  0
 21 40  1  0
 21 41  1  0
M  END
