
     RDKit          3D

 42 42  0  0  0  0  0  0  0  0999 V2000
   -3.7610    1.3397   -1.4220 C   0  0  0  0  0  0  0  0  0  0  0  0
   -3.8973   -0.1744   -1.3228 C   0  0  0  0  0  0  0  0  0  0  0  0
   -3.5088   -0.8005   -0.0565 N   0  0  0  0  0  0  0  0  0  0  0  0
   -4.3054   -0.3596    1.0890 C   0  0  0  0  0  0  0  0  0  0  0  0
   -4.2101   -1.3110    2.2776 C   0  0  0  0  0  0  0  0  0  0  0  0
   -2.0589   -0.9032    0.1636 C   0  0  0  0  0  0  0  0  0  0  0  0
   -1.3270    0.2816    0.8209 C   0  0  0  0  0  0  0  0  0  0  0  0
    0.0556   -0.0287    1.0281 O   0  0  0  0  0  0  0  0  0  0  0  0
    0.9502    0.2453    0.0320 C   0  0  0  0  0  0  0  0  0  0  0  0
    0.6480    0.6914   -1.2523 C   0  0  0  0  0  0  0  0  0  0  0  0
    1.6733    0.9246   -2.1719 C   0  0  0  0  0  0  0  0  0  0  0  0
    3.0047    0.7109   -1.8141 C   0  0  0  0  0  0  0  0  0  0  0  0
    3.3314    0.2575   -0.5302 C   0  0  0  0  0  0  0  0  0  0  0  0
    4.7838    0.0253   -0.1553 C   0  0  0  0  0  0  0  0  0  0  0  0
    5.2229    0.9412    0.9899 C   0  0  0  0  0  0  0  0  0  0  0  0
    5.0486   -1.4427    0.1881 C   0  0  0  0  0  0  0  0  0  0  0  0
    2.2879    0.0278    0.3816 C   0  0  0  0  0  0  0  0  0  0  0  0
   -4.2940    1.8542   -0.6173 H   0  0  0  0  0  0  0  0  0  0  0  0
   -2.7159    1.6546   -1.4105 H   0  0  0  0  0  0  0  0  0  0  0  0
   -4.1892    1.6848   -2.3695 H   0  0  0  0  0  0  0  0  0  0  0  0
   -4.9456   -0.4333   -1.5215 H   0  0  0  0  0  0  0  0  0  0  0  0
   -3.3376   -0.6355   -2.1463 H   0  0  0  0  0  0  0  0  0  0  0  0
   -4.0329    0.6535    1.4056 H   0  0  0  0  0  0  0  0  0  0  0  0
   -5.3633   -0.3217    0.7994 H   0  0  0  0  0  0  0  0  0  0  0  0
   -3.2057   -1.3279    2.7109 H   0  0  0  0  0  0  0  0  0  0  0  0
   -4.4787   -2.3321    1.9869 H   0  0  0  0  0  0  0  0  0  0  0  0
   -4.9028   -0.9944    3.0644 H   0  0  0  0  0  0  0  0  0  0  0  0
   -1.8750   -1.7890    0.7867 H   0  0  0  0  0  0  0  0  0  0  0  0
   -1.5641   -1.1647   -0.7802 H   0  0  0  0  0  0  0  0  0  0  0  0
   -1.4511    1.2284    0.2897 H   0  0  0  0  0  0  0  0  0  0  0  0
   -1.7373    0.4501    1.8224 H   0  0  0  0  0  0  0  0  0  0  0  0
   -0.3713    0.8601   -1.5785 H   0  0  0  0  0  0  0  0  0  0  0  0
    1.4328    1.2719   -3.1736 H   0  0  0  0  0  0  0  0  0  0  0  0
    3.7849    0.8990   -2.5483 H   0  0  0  0  0  0  0  0  0  0  0  0
    5.4113    0.2712   -1.0223 H   0  0  0  0  0  0  0  0  0  0  0  0
    5.0449    1.9931    0.7401 H   0  0  0  0  0  0  0  0  0  0  0  0
    6.2931    0.8208    1.1901 H   0  0  0  0  0  0  0  0  0  0  0  0
    4.6847    0.7232    1.9188 H   0  0  0  0  0  0  0  0  0  0  0  0
    4.7459   -2.0983   -0.6361 H   0  0  0  0  0  0  0  0  0  0  0  0
    4.5032   -1.7592    1.0838 H   0  0  0  0  0  0  0  0  0  0  0  0
    6.1156   -1.6081    0.3732 H   0  0  0  0  0  0  0  0  0  0  0  0
    2.5100   -0.3259    1.3863 H   0  0  0  0  0  0  0  0  0  0  0  0
  1  2  1  0
  2  3  1  0
  3  4  1  0
  4  5  1  0
  3  6  1  0
  6  7  1  0
  7  8  1  0
  8  9  1  0
  9 10  2  0
 10 11  1  0
 11 12  2  0
 12 13  1  0
 13 14  1  0
 14 15  1  0
 14 16  1  0
 13 17  2  0
 17  9  1  0
  1 18  1  0
  1 19  1  0
  1 20  1  0
  2 21  1  0
  2 22  1  0
  4 23  1  0
  4 24  1  0
  5 25  1  0
  5 26  1  0
  5 27  1  0
  6 28  1  0
  6 29  1  0
  7 30  1  0
  7 31  1  0
 10 32  1  0
 11 33  1  0
 12 34  1  0
 14 35  1  0
 15 36  1  0
 15 37  1  0
 15 38  1  0
 16 39  1  0
 16 40  1  0
 16 41  1  0
 17 42  1  0
M  END
