
     RDKit          3D

 30 31  0  0  0  0  0  0  0  0999 V2000
    1.0508    2.5338    0.5735 C   0  0  0  0  0  0  0  0  0  0  0  0
    1.4059    1.2338   -0.1311 C   0  0  0  0  0  0  0  0  0  0  0  0
    1.1305    0.0748    0.7650 N   0  0  0  0  0  0  0  0  0  0  0  0
    2.2222   -0.2147    1.7411 C   0  0  0  0  0  0  0  0  0  0  0  0
    3.4168   -0.9360    1.1381 C   0  0  0  0  0  0  0  0  0  0  0  0
    0.4556   -1.3091   -0.0032 S   0  0  0  0  0  6  0  0  0  0  0  0
    1.2338   -1.5111   -1.2056 O   0  0  0  0  0  0  0  0  0  0  0  0
    0.3029   -2.3410    1.0002 O   0  0  0  0  0  0  0  0  0  0  0  0
   -1.1658   -0.7798   -0.4202 C   0  0  0  0  0  0  0  0  0  0  0  0
   -1.8890    0.0561    0.4629 C   0  0  0  0  0  0  0  0  0  0  0  0
   -3.1984    0.5145    0.1936 C   0  0  0  0  0  0  0  0  0  0  0  0
   -3.9002    0.1695   -0.9725 C   0  0  0  0  0  0  0  0  0  0  0  0
   -3.2303   -0.6865   -1.8807 C   0  0  0  0  0  0  0  0  0  0  0  0
   -3.7361   -1.1359   -3.0388 N   0  0  0  0  0  0  0  0  0  0  0  0
   -2.5738   -2.1095   -3.7125 S   0  0  0  0  0  0  0  0  0  0  0  0
   -1.3792   -1.9956   -2.5709 N   0  0  0  0  0  0  0  0  0  0  0  0
   -1.8274   -1.1829   -1.6013 C   0  0  0  0  0  0  0  0  0  0  0  0
    1.2036    3.3823   -0.1010 H   0  0  0  0  0  0  0  0  0  0  0  0
    0.0036    2.5369    0.8921 H   0  0  0  0  0  0  0  0  0  0  0  0
    1.6701    2.6955    1.4607 H   0  0  0  0  0  0  0  0  0  0  0  0
    0.8022    1.1703   -1.0427 H   0  0  0  0  0  0  0  0  0  0  0  0
    2.4548    1.2475   -0.4418 H   0  0  0  0  0  0  0  0  0  0  0  0
    1.8065   -0.8024    2.5677 H   0  0  0  0  0  0  0  0  0  0  0  0
    2.5624    0.7251    2.1892 H   0  0  0  0  0  0  0  0  0  0  0  0
    3.8368   -0.3908    0.2882 H   0  0  0  0  0  0  0  0  0  0  0  0
    4.2051   -1.0420    1.8906 H   0  0  0  0  0  0  0  0  0  0  0  0
    3.1551   -1.9420    0.7976 H   0  0  0  0  0  0  0  0  0  0  0  0
   -1.4254    0.3571    1.4042 H   0  0  0  0  0  0  0  0  0  0  0  0
   -3.6877    1.1580    0.9259 H   0  0  0  0  0  0  0  0  0  0  0  0
   -4.9055    0.5240   -1.1683 H   0  0  0  0  0  0  0  0  0  0  0  0
  1  2  1  0
  2  3  1  0
  3  4  1  0
  4  5  1  0
  3  6  1  0
  6  7  2  0
  6  8  2  0
  6  9  1  0
  9 10  2  0
 10 11  1  0
 11 12  2  0
 12 13  1  0
 13 14  2  0
 14 15  1  0
 15 16  1  0
 16 17  2  0
 17  9  1  0
 17 13  1  0
  1 18  1  0
  1 19  1  0
  1 20  1  0
  2 21  1  0
  2 22  1  0
  4 23  1  0
  4 24  1  0
  5 25  1  0
  5 26  1  0
  5 27  1  0
 10 28  1  0
 11 29  1  0
 12 30  1  0
M  END
