
     RDKit          3D

 42 43  0  0  0  0  0  0  0  0999 V2000
   -2.2568   -4.1485    1.3223 C   0  0  0  0  0  0  0  0  0  0  0  0
   -2.5179   -3.1538    0.2017 C   0  0  0  0  0  0  0  0  0  0  0  0
   -1.9577   -1.8362    0.4981 N   0  0  0  0  0  0  0  0  0  0  0  0
   -2.7664   -0.9354    1.3223 C   0  0  0  0  0  0  0  0  0  0  0  0
   -3.3039    0.2598    0.5706 C   0  0  0  0  0  0  0  0  0  0  0  0
   -3.8482    0.1342   -0.7163 C   0  0  0  0  0  0  0  0  0  0  0  0
   -4.3590    1.2483   -1.3850 C   0  0  0  0  0  0  0  0  0  0  0  0
   -4.3418    2.4991   -0.7726 C   0  0  0  0  0  0  0  0  0  0  0  0
   -3.8178    2.6369    0.5104 C   0  0  0  0  0  0  0  0  0  0  0  0
   -3.3072    1.5239    1.1809 C   0  0  0  0  0  0  0  0  0  0  0  0
   -0.6276   -1.5907    0.1449 C   0  0  0  0  0  0  0  0  0  0  0  0
    0.0506   -2.4475   -0.4273 O   0  0  0  0  0  0  0  0  0  0  0  0
   -0.0482   -0.2123    0.4929 C   0  0  0  0  0  0  0  0  0  0  0  0
    1.3254   -0.1038    0.1158 O   0  0  0  0  0  0  0  0  0  0  0  0
    1.9079    1.0619    0.4875 C   0  0  0  0  0  0  0  0  0  0  0  0
    1.3606    1.9642    1.1062 O   0  0  0  0  0  0  0  0  0  0  0  0
    3.3245    1.1164    0.0459 C   0  0  0  0  0  0  0  0  0  0  0  0
    4.0692    2.2505    0.3338 C   0  0  0  0  0  0  0  0  0  0  0  0
    5.3713    2.3837   -0.0317 N   0  0  0  0  0  0  0  0  0  0  0  0
    5.9068    1.3330   -0.7023 C   0  0  0  0  0  0  0  0  0  0  0  0
    7.3375    1.4266   -1.1297 C   0  0  0  0  0  0  0  0  0  0  0  0
    5.1539    0.1975   -0.9882 C   0  0  0  0  0  0  0  0  0  0  0  0
    3.8571    0.0610   -0.6250 N   0  0  0  0  0  0  0  0  0  0  0  0
   -2.6844   -5.1240    1.0715 H   0  0  0  0  0  0  0  0  0  0  0  0
   -1.1831   -4.2788    1.4926 H   0  0  0  0  0  0  0  0  0  0  0  0
   -2.7044   -3.8107    2.2625 H   0  0  0  0  0  0  0  0  0  0  0  0
   -2.0799   -3.5356   -0.7274 H   0  0  0  0  0  0  0  0  0  0  0  0
   -3.5943   -3.0491    0.0260 H   0  0  0  0  0  0  0  0  0  0  0  0
   -3.6137   -1.4879    1.7460 H   0  0  0  0  0  0  0  0  0  0  0  0
   -2.1513   -0.6107    2.1684 H   0  0  0  0  0  0  0  0  0  0  0  0
   -3.8721   -0.8322   -1.2145 H   0  0  0  0  0  0  0  0  0  0  0  0
   -4.7695    1.1391   -2.3857 H   0  0  0  0  0  0  0  0  0  0  0  0
   -4.7377    3.3662   -1.2949 H   0  0  0  0  0  0  0  0  0  0  0  0
   -3.8057    3.6126    0.9897 H   0  0  0  0  0  0  0  0  0  0  0  0
   -2.9046    1.6561    2.1833 H   0  0  0  0  0  0  0  0  0  0  0  0
   -0.6151    0.5475   -0.0530 H   0  0  0  0  0  0  0  0  0  0  0  0
   -0.1287   -0.0664    1.5747 H   0  0  0  0  0  0  0  0  0  0  0  0
    3.6456    3.0940    0.8692 H   0  0  0  0  0  0  0  0  0  0  0  0
    7.4130    1.3508   -2.2189 H   0  0  0  0  0  0  0  0  0  0  0  0
    7.7734    2.3830   -0.8236 H   0  0  0  0  0  0  0  0  0  0  0  0
    7.9228    0.6232   -0.6719 H   0  0  0  0  0  0  0  0  0  0  0  0
    5.5774   -0.6459   -1.5244 H   0  0  0  0  0  0  0  0  0  0  0  0
  1  2  1  0
  2  3  1  0
  3  4  1  0
  4  5  1  0
  5  6  2  0
  6  7  1  0
  7  8  2  0
  8  9  1  0
  9 10  2  0
  3 11  1  0
 11 12  2  0
 11 13  1  0
 13 14  1  0
 14 15  1  0
 15 16  2  0
 15 17  1  0
 17 18  2  0
 18 19  1  0
 19 20  2  0
 20 21  1  0
 20 22  1  0
 22 23  2  0
 10  5  1  0
 23 17  1  0
  1 24  1  0
  1 25  1  0
  1 26  1  0
  2 27  1  0
  2 28  1  0
  4 29  1  0
  4 30  1  0
  6 31  1  0
  7 32  1  0
  8 33  1  0
  9 34  1  0
 10 35  1  0
 13 36  1  0
 13 37  1  0
 18 38  1  0
 21 39  1  0
 21 40  1  0
 21 41  1  0
 22 42  1  0
M  END
