
     RDKit          3D

 28 29  0  0  0  0  0  0  0  0999 V2000
   -4.2959   -1.0304   -0.1874 C   0  0  0  0  0  0  0  0  0  0  0  0
   -3.6827    0.3477    0.0103 C   0  0  0  0  0  0  0  0  0  0  0  0
   -2.2281    0.3079   -0.0832 N   0  0  0  0  0  0  0  0  0  0  0  0
   -1.4531    0.0272    1.0174 C   0  0  0  0  0  0  0  0  0  0  0  0
   -1.8115   -0.1917    2.1614 O   0  0  0  0  0  0  0  0  0  0  0  0
   -0.0425    0.0394    0.5211 C   0  0  0  0  0  0  0  0  0  0  0  0
    0.9575   -0.1803    1.3846 C   0  0  0  0  0  0  0  0  0  0  0  0
    2.3395   -0.1606    1.0706 C   0  0  0  0  0  0  0  0  0  0  0  0
    3.1719    0.9185    0.8325 C   0  0  0  0  0  0  0  0  0  0  0  0
    4.5194    0.5306    0.5779 C   0  0  0  0  0  0  0  0  0  0  0  0
    4.6837   -0.8334    0.6536 C   0  0  0  0  0  0  0  0  0  0  0  0
    3.2246   -1.6349    1.0398 S   0  0  0  0  0  0  0  0  0  0  0  0
   -0.0949    0.2882   -0.8385 N   0  0  0  0  0  0  0  0  0  0  0  0
    1.0540    0.3273   -1.7252 C   0  0  0  0  0  0  0  0  0  0  0  0
   -1.4453    0.4569   -1.2250 C   0  0  0  0  0  0  0  0  0  0  0  0
   -2.0063    0.7814   -2.7646 S   0  0  0  0  0  0  0  0  0  0  0  0
   -3.9307   -1.7349    0.5671 H   0  0  0  0  0  0  0  0  0  0  0  0
   -4.0466   -1.4391   -1.1717 H   0  0  0  0  0  0  0  0  0  0  0  0
   -5.3858   -0.9765   -0.1053 H   0  0  0  0  0  0  0  0  0  0  0  0
   -3.9585    0.7243    1.0019 H   0  0  0  0  0  0  0  0  0  0  0  0
   -4.0838    1.0448   -0.7313 H   0  0  0  0  0  0  0  0  0  0  0  0
    0.7122   -0.3913    2.4252 H   0  0  0  0  0  0  0  0  0  0  0  0
    2.8273    1.9462    0.8375 H   0  0  0  0  0  0  0  0  0  0  0  0
    5.3279    1.2179    0.3601 H   0  0  0  0  0  0  0  0  0  0  0  0
    5.5938   -1.4004    0.5131 H   0  0  0  0  0  0  0  0  0  0  0  0
    1.6462    1.2182   -1.5027 H   0  0  0  0  0  0  0  0  0  0  0  0
    0.7580    0.3773   -2.7748 H   0  0  0  0  0  0  0  0  0  0  0  0
    1.6497   -0.5801   -1.5983 H   0  0  0  0  0  0  0  0  0  0  0  0
  1  2  1  0
  2  3  1  0
  3  4  1  0
  4  5  2  0
  4  6  1  0
  6  7  2  3
  7  8  1  0
  8  9  2  0
  9 10  1  0
 10 11  2  0
 11 12  1  0
  6 13  1  0
 13 14  1  0
 13 15  1  0
 15 16  2  0
 15  3  1  0
 12  8  1  0
  1 17  1  0
  1 18  1  0
  1 19  1  0
  2 20  1  0
  2 21  1  0
  7 22  1  0
  9 23  1  0
 10 24  1  0
 11 25  1  0
 14 26  1  0
 14 27  1  0
 14 28  1  0
M  END
