
     RDKit          3D

 32 33  0  0  0  0  0  0  0  0999 V2000
   -2.8370    2.2690   -1.1855 C   0  0  0  0  0  0  0  0  0  0  0  0
   -2.4729    1.8491    0.2295 C   0  0  0  0  0  0  0  0  0  0  0  0
   -1.4426    0.8371    0.2472 N   0  0  0  0  0  0  0  0  0  0  0  0
   -0.0761    1.1305    0.2982 C   0  0  0  0  0  0  0  0  0  0  0  0
    0.4183    2.2404    0.3742 O   0  0  0  0  0  0  0  0  0  0  0  0
    0.6177   -0.2103    0.2285 C   0  0  0  0  0  0  0  0  0  0  0  0
    1.9259   -0.5147    0.2582 C   0  0  0  0  0  0  0  0  0  0  0  0
    3.1119    0.2056    0.3656 N   0  0  0  0  0  0  0  0  0  0  0  0
    4.4082   -0.4736    0.4170 C   0  0  0  0  0  0  0  0  0  0  0  0
    3.1666    1.6377    0.6547 C   0  0  0  0  0  0  0  0  0  0  0  0
   -0.4449   -1.2261    0.1036 C   0  0  0  0  0  0  0  0  0  0  0  0
   -0.4154   -2.6083   -0.0177 C   0  0  0  0  0  0  0  0  0  0  0  0
   -1.6289   -3.2941   -0.1306 C   0  0  0  0  0  0  0  0  0  0  0  0
   -2.8483   -2.5992   -0.1231 C   0  0  0  0  0  0  0  0  0  0  0  0
   -2.8741   -1.2079   -0.0009 C   0  0  0  0  0  0  0  0  0  0  0  0
   -1.6647   -0.5416    0.1131 C   0  0  0  0  0  0  0  0  0  0  0  0
   -3.6021    3.0510   -1.1651 H   0  0  0  0  0  0  0  0  0  0  0  0
   -1.9623    2.6590   -1.7166 H   0  0  0  0  0  0  0  0  0  0  0  0
   -3.2274    1.4242   -1.7620 H   0  0  0  0  0  0  0  0  0  0  0  0
   -3.3550    1.4865    0.7676 H   0  0  0  0  0  0  0  0  0  0  0  0
   -2.1045    2.7267    0.7733 H   0  0  0  0  0  0  0  0  0  0  0  0
    2.1735   -1.5719    0.1784 H   0  0  0  0  0  0  0  0  0  0  0  0
    4.6922   -0.6615    1.4575 H   0  0  0  0  0  0  0  0  0  0  0  0
    4.3835   -1.4314   -0.1146 H   0  0  0  0  0  0  0  0  0  0  0  0
    5.1879    0.1334   -0.0561 H   0  0  0  0  0  0  0  0  0  0  0  0
    2.5911    1.8743    1.5550 H   0  0  0  0  0  0  0  0  0  0  0  0
    4.1933    1.9730    0.8426 H   0  0  0  0  0  0  0  0  0  0  0  0
    2.7989    2.2123   -0.2003 H   0  0  0  0  0  0  0  0  0  0  0  0
    0.5185   -3.1595   -0.0289 H   0  0  0  0  0  0  0  0  0  0  0  0
   -1.6287   -4.3778   -0.2273 H   0  0  0  0  0  0  0  0  0  0  0  0
   -3.7816   -3.1507   -0.2139 H   0  0  0  0  0  0  0  0  0  0  0  0
   -3.8212   -0.6814    0.0022 H   0  0  0  0  0  0  0  0  0  0  0  0
  1  2  1  0
  2  3  1  0
  3  4  1  0
  4  5  2  0
  4  6  1  0
  6  7  2  3
  7  8  1  0
  8  9  1  0
  8 10  1  0
  6 11  1  0
 11 12  2  0
 12 13  1  0
 13 14  2  0
 14 15  1  0
 15 16  2  0
 16  3  1  0
 16 11  1  0
  1 17  1  0
  1 18  1  0
  1 19  1  0
  2 20  1  0
  2 21  1  0
  7 22  1  0
  9 23  1  0
  9 24  1  0
  9 25  1  0
 10 26  1  0
 10 27  1  0
 10 28  1  0
 12 29  1  0
 13 30  1  0
 14 31  1  0
 15 32  1  0
M  END
