
     RDKit          3D

 42 44  0  0  0  0  0  0  0  0999 V2000
    4.8781    2.0809    0.5173 C   0  0  0  0  0  0  0  0  0  0  0  0
    4.1509    1.4808   -0.6776 C   0  0  0  0  0  0  0  0  0  0  0  0
    2.9777    0.7058   -0.2795 N   0  0  0  0  0  0  0  0  0  0  0  0
    1.7647    1.3780   -0.2250 C   0  0  0  0  0  0  0  0  0  0  0  0
    1.6214    2.5758   -0.4693 O   0  0  0  0  0  0  0  0  0  0  0  0
    0.5661    0.6050    0.1596 C   0  0  0  0  0  0  0  0  0  0  0  0
    0.6217   -0.6898    0.4965 C   0  0  0  0  0  0  0  0  0  0  0  0
   -0.4418   -1.4805    0.8796 O   0  0  0  0  0  0  0  0  0  0  0  0
   -1.7418   -0.9130    0.9490 C   0  0  0  0  0  0  0  0  0  0  0  0
   -2.4476   -0.6862   -0.3979 C   0  0  0  0  0  0  0  0  0  0  0  0
   -2.0016   -1.1271   -1.4572 O   0  0  0  0  0  0  0  0  0  0  0  0
   -3.6175    0.0464   -0.3557 N   0  0  0  0  0  0  0  0  0  0  0  0
   -4.2761    0.5898    0.8214 C   0  0  0  0  0  0  0  0  0  0  0  0
   -5.6490    1.0170    0.3215 C   0  0  0  0  0  0  0  0  0  0  0  0
   -5.3821    1.3904   -1.1316 C   0  0  0  0  0  0  0  0  0  0  0  0
   -4.3599    0.3505   -1.5669 C   0  0  0  0  0  0  0  0  0  0  0  0
    1.9281   -1.3754    0.4759 C   0  0  0  0  0  0  0  0  0  0  0  0
    2.0316   -2.7327    0.8346 C   0  0  0  0  0  0  0  0  0  0  0  0
    3.2614   -3.3879    0.8268 C   0  0  0  0  0  0  0  0  0  0  0  0
    4.4059   -2.6935    0.4611 C   0  0  0  0  0  0  0  0  0  0  0  0
    4.3203   -1.3469    0.0984 C   0  0  0  0  0  0  0  0  0  0  0  0
    3.0875   -0.6710    0.0947 C   0  0  0  0  0  0  0  0  0  0  0  0
    4.2157    2.7391    1.0892 H   0  0  0  0  0  0  0  0  0  0  0  0
    5.7369    2.6700    0.1813 H   0  0  0  0  0  0  0  0  0  0  0  0
    5.2427    1.3049    1.1974 H   0  0  0  0  0  0  0  0  0  0  0  0
    3.8333    2.3012   -1.3330 H   0  0  0  0  0  0  0  0  0  0  0  0
    4.8222    0.8728   -1.2919 H   0  0  0  0  0  0  0  0  0  0  0  0
   -0.3469    1.1827    0.1400 H   0  0  0  0  0  0  0  0  0  0  0  0
   -1.7219    0.0080    1.5423 H   0  0  0  0  0  0  0  0  0  0  0  0
   -2.3583   -1.6321    1.5010 H   0  0  0  0  0  0  0  0  0  0  0  0
   -3.6920    1.4500    1.1659 H   0  0  0  0  0  0  0  0  0  0  0  0
   -4.3303   -0.1530    1.6218 H   0  0  0  0  0  0  0  0  0  0  0  0
   -6.3441    0.1697    0.3635 H   0  0  0  0  0  0  0  0  0  0  0  0
   -6.0734    1.8387    0.9047 H   0  0  0  0  0  0  0  0  0  0  0  0
   -4.9417    2.3936   -1.1804 H   0  0  0  0  0  0  0  0  0  0  0  0
   -6.2838    1.3804   -1.7497 H   0  0  0  0  0  0  0  0  0  0  0  0
   -3.6943    0.7123   -2.3563 H   0  0  0  0  0  0  0  0  0  0  0  0
   -4.8453   -0.5720   -1.9041 H   0  0  0  0  0  0  0  0  0  0  0  0
    1.1463   -3.2963    1.1217 H   0  0  0  0  0  0  0  0  0  0  0  0
    3.3209   -4.4367    1.1051 H   0  0  0  0  0  0  0  0  0  0  0  0
    5.3692   -3.1975    0.4550 H   0  0  0  0  0  0  0  0  0  0  0  0
    5.2467   -0.8521   -0.1725 H   0  0  0  0  0  0  0  0  0  0  0  0
  1  2  1  0
  2  3  1  0
  3  4  1  0
  4  5  2  0
  4  6  1  0
  6  7  2  0
  7  8  1  0
  8  9  1  0
  9 10  1  0
 10 11  2  0
 10 12  1  0
 12 13  1  0
 13 14  1  0
 14 15  1  0
 15 16  1  0
  7 17  1  0
 17 18  2  0
 18 19  1  0
 19 20  2  0
 20 21  1  0
 21 22  2  0
 22  3  1  0
 16 12  1  0
 22 17  1  0
  1 23  1  0
  1 24  1  0
  1 25  1  0
  2 26  1  0
  2 27  1  0
  6 28  1  0
  9 29  1  0
  9 30  1  0
 13 31  1  0
 13 32  1  0
 14 33  1  0
 14 34  1  0
 15 35  1  0
 15 36  1  0
 16 37  1  0
 16 38  1  0
 18 39  1  0
 19 40  1  0
 20 41  1  0
 21 42  1  0
M  END
