
     RDKit          3D

 41 46  0  0  0  0  0  0  0  0999 V2000
   -4.6307    0.2189   -1.3399 Si  0  0  0  0  0  4  0  0  0  0  0  0
   -5.9369    1.4285   -0.7157 C   0  0  0  0  0  0  0  0  0  0  0  0
   -5.4794    2.1540    0.3214 C   0  0  0  0  0  0  0  0  0  0  0  0
   -4.1139    1.8623    0.7294 C   0  0  0  0  0  0  0  0  0  0  0  0
   -3.4983    0.8992    0.0137 C   0  0  0  0  0  0  0  0  0  0  0  0
   -2.1292    0.4125    0.1923 C   0  0  0  0  0  0  0  0  0  0  0  0
   -1.1300    1.0671   -0.5373 C   0  0  0  0  0  0  0  0  0  0  0  0
    0.2090    0.6883   -0.4503 C   0  0  0  0  0  0  0  0  0  0  0  0
    1.1485    1.3929   -1.2255 C   0  0  0  0  0  0  0  0  0  0  0  0
    2.4790    1.0053   -1.1349 C   0  0  0  0  0  0  0  0  0  0  0  0
    3.5192    1.5794   -1.8182 O   0  0  0  0  0  0  0  0  0  0  0  0
    4.6477    0.9087   -1.4476 C   0  0  0  0  0  0  0  0  0  0  0  0
    6.0033    1.0792   -1.8413 C   0  0  0  0  0  0  0  0  0  0  0  0
    6.8128    0.1901   -1.2247 C   0  0  0  0  0  0  0  0  0  0  0  0
    5.8277   -0.9728   -0.0457 Si  0  0  0  0  0  4  0  0  0  0  0  0
    4.2892   -0.0712   -0.5403 C   0  0  0  0  0  0  0  0  0  0  0  0
    2.9185   -0.0341   -0.3222 C   0  0  0  0  0  0  0  0  0  0  0  0
    1.9674   -0.7273    0.4476 C   0  0  0  0  0  0  0  0  0  0  0  0
    0.5847   -0.3828    0.4039 C   0  0  0  0  0  0  0  0  0  0  0  0
   -0.4319   -1.0553    1.1750 C   0  0  0  0  0  0  0  0  0  0  0  0
   -0.1491   -2.1294    2.0604 C   0  0  0  0  0  0  0  0  0  0  0  0
   -1.1364   -2.7721    2.8106 C   0  0  0  0  0  0  0  0  0  0  0  0
   -2.4513   -2.3612    2.7051 C   0  0  0  0  0  0  0  0  0  0  0  0
   -2.7716   -1.3127    1.8468 C   0  0  0  0  0  0  0  0  0  0  0  0
   -1.7918   -0.6461    1.0688 C   0  0  0  0  0  0  0  0  0  0  0  0
   -5.0387   -1.1890   -1.1060 H   0  0  0  0  0  0  0  0  0  0  0  0
   -4.1723    0.5651   -2.7088 H   0  0  0  0  0  0  0  0  0  0  0  0
   -6.9122    1.4877   -1.1720 H   0  0  0  0  0  0  0  0  0  0  0  0
   -6.0630    2.9090    0.8339 H   0  0  0  0  0  0  0  0  0  0  0  0
   -3.6528    2.3972    1.5512 H   0  0  0  0  0  0  0  0  0  0  0  0
   -1.4125    1.8937   -1.1897 H   0  0  0  0  0  0  0  0  0  0  0  0
    0.8666    2.2117   -1.8779 H   0  0  0  0  0  0  0  0  0  0  0  0
    6.3171    1.8350   -2.5479 H   0  0  0  0  0  0  0  0  0  0  0  0
    7.8807    0.0857   -1.3295 H   0  0  0  0  0  0  0  0  0  0  0  0
    5.9058   -2.3775   -0.5180 H   0  0  0  0  0  0  0  0  0  0  0  0
    6.2486   -0.7622    1.3617 H   0  0  0  0  0  0  0  0  0  0  0  0
    2.3265   -1.5333    1.0761 H   0  0  0  0  0  0  0  0  0  0  0  0
    0.8653   -2.4949    2.1901 H   0  0  0  0  0  0  0  0  0  0  0  0
   -0.8698   -3.5888    3.4761 H   0  0  0  0  0  0  0  0  0  0  0  0
   -3.2294   -2.8483    3.2861 H   0  0  0  0  0  0  0  0  0  0  0  0
   -3.8164   -1.0120    1.7959 H   0  0  0  0  0  0  0  0  0  0  0  0
  1  2  1  0
  2  3  2  0
  3  4  1  0
  4  5  2  0
  5  6  1  0
  6  7  2  0
  7  8  1  0
  8  9  2  0
  9 10  1  0
 10 11  1  0
 11 12  1  0
 12 13  1  0
 13 14  2  0
 14 15  1  0
 15 16  1  0
 16 17  1  0
 17 18  1  0
 18 19  2  0
 19 20  1  0
 20 21  2  0
 21 22  1  0
 22 23  2  0
 23 24  1  0
 24 25  2  0
  5  1  1  0
 25  6  1  0
 19  8  1  0
 25 20  1  0
 17 10  2  0
 16 12  2  0
  1 26  1  0
  1 27  1  0
  2 28  1  0
  3 29  1  0
  4 30  1  0
  7 31  1  0
  9 32  1  0
 13 33  1  0
 14 34  1  0
 15 35  1  0
 15 36  1  0
 18 37  1  0
 21 38  1  0
 22 39  1  0
 23 40  1  0
 24 41  1  0
M  END
