
     RDKit          3D

 31 33  0  0  0  0  0  0  0  0999 V2000
   -0.5252    3.6388    0.6382 C   0  0  0  0  0  0  0  0  0  0  0  0
   -0.3980    2.9166   -0.6933 C   0  0  0  0  0  0  0  0  0  0  0  0
   -0.1187    1.4972   -0.4826 N   0  0  0  0  0  0  0  0  0  0  0  0
    1.2103    1.1740   -0.3698 N   0  0  0  0  0  0  0  0  0  0  0  0
    1.5197   -0.0615   -0.1056 C   0  0  0  0  0  0  0  0  0  0  0  0
    2.8966   -0.5035    0.0325 C   0  0  0  0  0  0  0  0  0  0  0  0
    3.3782   -1.7734    0.3084 C   0  0  0  0  0  0  0  0  0  0  0  0
    4.8011   -1.8253    0.3689 C   0  0  0  0  0  0  0  0  0  0  0  0
    5.3689   -0.5939    0.1378 C   0  0  0  0  0  0  0  0  0  0  0  0
    4.1918    0.6111   -0.1490 S   0  0  0  0  0  0  0  0  0  0  0  0
    0.6183   -1.0826    0.0741 N   0  0  0  0  0  0  0  0  0  0  0  0
   -0.6475   -0.8047    0.0023 C   0  0  0  0  0  0  0  0  0  0  0  0
   -1.6652   -1.8876    0.1881 C   0  0  0  0  0  0  0  0  0  0  0  0
   -1.3056   -3.0241    0.4640 O   0  0  0  0  0  0  0  0  0  0  0  0
   -2.9690   -1.4642    0.0425 N   0  0  0  0  0  0  0  0  0  0  0  0
   -4.0233   -2.4407    0.2359 C   0  0  0  0  0  0  0  0  0  0  0  0
   -3.3407   -0.1285   -0.0643 C   0  0  0  0  0  0  0  0  0  0  0  0
   -4.5195    0.1986    0.0491 O   0  0  0  0  0  0  0  0  0  0  0  0
   -2.3924    0.8319   -0.2890 N   0  0  0  0  0  0  0  0  0  0  0  0
   -1.1272    0.5803   -0.2698 C   0  0  0  0  0  0  0  0  0  0  0  0
   -1.3441    3.2265    1.2367 H   0  0  0  0  0  0  0  0  0  0  0  0
    0.3953    3.5491    1.2246 H   0  0  0  0  0  0  0  0  0  0  0  0
   -0.7240    4.7026    0.4757 H   0  0  0  0  0  0  0  0  0  0  0  0
    0.4084    3.3724   -1.2808 H   0  0  0  0  0  0  0  0  0  0  0  0
   -1.3159    3.0454   -1.2785 H   0  0  0  0  0  0  0  0  0  0  0  0
    2.7324   -2.6313    0.4607 H   0  0  0  0  0  0  0  0  0  0  0  0
    5.3762   -2.7206    0.5717 H   0  0  0  0  0  0  0  0  0  0  0  0
    6.4203   -0.3409    0.1232 H   0  0  0  0  0  0  0  0  0  0  0  0
   -4.3532   -2.3929    1.2787 H   0  0  0  0  0  0  0  0  0  0  0  0
   -3.6735   -3.4542    0.0192 H   0  0  0  0  0  0  0  0  0  0  0  0
   -4.8744   -2.2149   -0.4142 H   0  0  0  0  0  0  0  0  0  0  0  0
  1  2  1  0
  2  3  1  0
  3  4  1  0
  4  5  2  0
  5  6  1  0
  6  7  2  0
  7  8  1  0
  8  9  2  0
  9 10  1  0
  5 11  1  0
 11 12  2  0
 12 13  1  0
 13 14  2  0
 13 15  1  0
 15 16  1  0
 15 17  1  0
 17 18  2  0
 17 19  1  0
 19 20  2  0
 20  3  1  0
 10  6  1  0
 20 12  1  0
  1 21  1  0
  1 22  1  0
  1 23  1  0
  2 24  1  0
  2 25  1  0
  7 26  1  0
  8 27  1  0
  9 28  1  0
 16 29  1  0
 16 30  1  0
 16 31  1  0
M  END
