
     RDKit          3D

 43 44  0  0  0  0  0  0  0  0999 V2000
   -7.4790    0.5338    1.1061 C   0  0  0  0  0  0  0  0  0  0  0  0
   -6.7291    0.5478   -0.2138 C   0  0  0  0  0  0  0  0  0  0  0  0
   -5.4547   -0.1320   -0.1118 N   0  0  0  0  0  0  0  0  0  0  0  0
   -4.3261    0.5061    0.3583 C   0  0  0  0  0  0  0  0  0  0  0  0
   -4.3084    1.6821    0.7021 O   0  0  0  0  0  0  0  0  0  0  0  0
   -3.1251   -0.4091    0.4514 C   0  0  0  0  0  0  0  0  0  0  0  0
   -1.8317    0.3669    0.6688 C   0  0  0  0  0  0  0  0  0  0  0  0
   -1.1129    0.9628   -0.8785 S   0  0  0  0  0  0  0  0  0  0  0  0
    0.5181    0.5246   -0.3983 C   0  0  0  0  0  0  0  0  0  0  0  0
    1.4593    0.9756   -1.1555 N   0  0  0  0  0  0  0  0  0  0  0  0
    2.8199    0.8105   -0.9198 C   0  0  0  0  0  0  0  0  0  0  0  0
    3.5055    1.6973   -0.0855 C   0  0  0  0  0  0  0  0  0  0  0  0
    4.8809    1.5591    0.1193 C   0  0  0  0  0  0  0  0  0  0  0  0
    5.5920    0.5373   -0.5206 C   0  0  0  0  0  0  0  0  0  0  0  0
    7.0749    0.4110   -0.3328 C   0  0  0  0  0  0  0  0  0  0  0  0
    4.9131   -0.3171   -1.3974 C   0  0  0  0  0  0  0  0  0  0  0  0
    3.5379   -0.1739   -1.6000 C   0  0  0  0  0  0  0  0  0  0  0  0
    0.4972   -0.2544    0.7327 N   0  0  0  0  0  0  0  0  0  0  0  0
    1.6191   -1.0086    1.2831 C   0  0  0  0  0  0  0  0  0  0  0  0
    1.7640   -2.3726    0.6222 C   0  0  0  0  0  0  0  0  0  0  0  0
   -0.7550   -0.5003    1.2792 C   0  0  0  0  0  0  0  0  0  0  0  0
   -0.9800   -1.3118    2.1739 O   0  0  0  0  0  0  0  0  0  0  0  0
   -8.4483    1.0301    0.9994 H   0  0  0  0  0  0  0  0  0  0  0  0
   -6.9137    1.0507    1.8884 H   0  0  0  0  0  0  0  0  0  0  0  0
   -7.6537   -0.4928    1.4449 H   0  0  0  0  0  0  0  0  0  0  0  0
   -6.5631    1.5798   -0.5408 H   0  0  0  0  0  0  0  0  0  0  0  0
   -7.3111    0.0324   -0.9843 H   0  0  0  0  0  0  0  0  0  0  0  0
   -5.4316   -1.1315   -0.2679 H   0  0  0  0  0  0  0  0  0  0  0  0
   -3.3215   -1.0736    1.3025 H   0  0  0  0  0  0  0  0  0  0  0  0
   -3.0688   -1.0457   -0.4403 H   0  0  0  0  0  0  0  0  0  0  0  0
   -1.9668    1.2187    1.3446 H   0  0  0  0  0  0  0  0  0  0  0  0
    2.9656    2.5047    0.4017 H   0  0  0  0  0  0  0  0  0  0  0  0
    5.3937    2.2615    0.7726 H   0  0  0  0  0  0  0  0  0  0  0  0
    7.3943   -0.6311   -0.4393 H   0  0  0  0  0  0  0  0  0  0  0  0
    7.3708    0.7402    0.6689 H   0  0  0  0  0  0  0  0  0  0  0  0
    7.5996    1.0200   -1.0753 H   0  0  0  0  0  0  0  0  0  0  0  0
    5.4517   -1.0915   -1.9388 H   0  0  0  0  0  0  0  0  0  0  0  0
    3.0236   -0.8278   -2.2989 H   0  0  0  0  0  0  0  0  0  0  0  0
    2.5460   -0.4467    1.2006 H   0  0  0  0  0  0  0  0  0  0  0  0
    1.4552   -1.1557    2.3576 H   0  0  0  0  0  0  0  0  0  0  0  0
    1.8813   -2.2854   -0.4615 H   0  0  0  0  0  0  0  0  0  0  0  0
    0.8807   -2.9933    0.8060 H   0  0  0  0  0  0  0  0  0  0  0  0
    2.6361   -2.8979    1.0232 H   0  0  0  0  0  0  0  0  0  0  0  0
  1  2  1  0
  2  3  1  0
  3  4  1  0
  4  5  2  0
  4  6  1  0
  6  7  1  0
  7  8  1  0
  8  9  1  0
  9 10  2  3
 10 11  1  0
 11 12  2  0
 12 13  1  0
 13 14  2  0
 14 15  1  0
 14 16  1  0
 16 17  2  0
  9 18  1  0
 18 19  1  0
 19 20  1  0
 18 21  1  0
 21 22  2  0
 21  7  1  0
 17 11  1  0
  1 23  1  0
  1 24  1  0
  1 25  1  0
  2 26  1  0
  2 27  1  0
  3 28  1  0
  6 29  1  0
  6 30  1  0
  7 31  1  0
 12 32  1  0
 13 33  1  0
 15 34  1  0
 15 35  1  0
 15 36  1  0
 16 37  1  0
 17 38  1  0
 19 39  1  0
 19 40  1  0
 20 41  1  0
 20 42  1  0
 20 43  1  0
M  END
