
     RDKit          3D

 29 30  0  0  0  0  0  0  0  0999 V2000
    4.5499   -1.3074   -0.4034 C   0  0  0  0  0  0  0  0  0  0  0  0
    4.4366    0.1975   -0.5857 C   0  0  0  0  0  0  0  0  0  0  0  0
    3.3992    0.7470    0.2669 N   0  0  0  0  0  0  0  0  0  0  0  0
    2.1032    0.6808   -0.1230 C   0  0  0  0  0  0  0  0  0  0  0  0
    1.6632    0.4189   -1.3355 N   0  0  0  0  0  0  0  0  0  0  0  0
    0.2854    0.4189   -1.4166 N   0  0  0  0  0  0  0  0  0  0  0  0
   -0.2834    0.6573   -0.2513 C   0  0  0  0  0  0  0  0  0  0  0  0
   -1.7285    0.7565   -0.0363 C   0  0  0  0  0  0  0  0  0  0  0  0
   -2.4854    1.5415   -0.9234 C   0  0  0  0  0  0  0  0  0  0  0  0
   -3.8657    1.6869   -0.7579 C   0  0  0  0  0  0  0  0  0  0  0  0
   -4.5125    1.0473    0.2969 C   0  0  0  0  0  0  0  0  0  0  0  0
   -3.7834    0.2483    1.1755 C   0  0  0  0  0  0  0  0  0  0  0  0
   -2.4060    0.0837    0.9935 C   0  0  0  0  0  0  0  0  0  0  0  0
   -1.7395   -0.7254    1.8798 O   0  0  0  0  0  0  0  0  0  0  0  0
   -1.7903   -2.0836    1.4368 C   0  0  0  0  0  0  0  0  0  0  0  0
    0.8409    0.9515    1.0155 S   0  0  0  0  0  0  0  0  0  0  0  0
    5.3686   -1.7028   -1.0125 H   0  0  0  0  0  0  0  0  0  0  0  0
    4.7479   -1.5625    0.6431 H   0  0  0  0  0  0  0  0  0  0  0  0
    3.6276   -1.8159   -0.7031 H   0  0  0  0  0  0  0  0  0  0  0  0
    5.3896    0.6617   -0.3083 H   0  0  0  0  0  0  0  0  0  0  0  0
    4.2647    0.4446   -1.6401 H   0  0  0  0  0  0  0  0  0  0  0  0
    3.5856    0.7224    1.2631 H   0  0  0  0  0  0  0  0  0  0  0  0
   -1.9944    2.0539   -1.7500 H   0  0  0  0  0  0  0  0  0  0  0  0
   -4.4322    2.3048   -1.4505 H   0  0  0  0  0  0  0  0  0  0  0  0
   -5.5841    1.1689    0.4332 H   0  0  0  0  0  0  0  0  0  0  0  0
   -4.2866   -0.2509    1.9991 H   0  0  0  0  0  0  0  0  0  0  0  0
   -2.8169   -2.4652    1.4547 H   0  0  0  0  0  0  0  0  0  0  0  0
   -1.1939   -2.6835    2.1307 H   0  0  0  0  0  0  0  0  0  0  0  0
   -1.3596   -2.1954    0.4355 H   0  0  0  0  0  0  0  0  0  0  0  0
  1  2  1  0
  2  3  1  0
  3  4  1  0
  4  5  2  0
  5  6  1  0
  6  7  2  0
  7  8  1  0
  8  9  2  0
  9 10  1  0
 10 11  2  0
 11 12  1  0
 12 13  2  0
 13 14  1  0
 14 15  1  0
  7 16  1  0
 16  4  1  0
 13  8  1  0
  1 17  1  0
  1 18  1  0
  1 19  1  0
  2 20  1  0
  2 21  1  0
  3 22  1  0
  9 23  1  0
 10 24  1  0
 11 25  1  0
 12 26  1  0
 15 27  1  0
 15 28  1  0
 15 29  1  0
M  END
