
     RDKit          3D

 35 37  0  0  0  0  0  0  0  0999 V2000
   -4.1424   -1.8947   -1.0605 C   0  0  0  0  0  0  0  0  0  0  0  0
   -3.1334   -2.6145   -0.1854 C   0  0  0  0  0  0  0  0  0  0  0  0
   -1.8448   -1.9952   -0.3057 O   0  0  0  0  0  0  0  0  0  0  0  0
   -1.6183   -0.9093    0.4978 C   0  0  0  0  0  0  0  0  0  0  0  0
   -2.4224   -0.5110    1.3369 O   0  0  0  0  0  0  0  0  0  0  0  0
   -0.2032   -0.3200    0.2690 C   0  0  0  0  0  0  0  0  0  0  0  0
    0.0073    0.9690    0.9672 N   0  0  0  0  0  0  0  0  0  0  0  0
   -0.8130    2.0390    0.8436 C   0  0  0  0  0  0  0  0  0  0  0  0
   -0.9471    2.8761    1.8477 N   0  0  0  0  0  0  0  0  0  0  0  0
   -1.8191    3.8945    1.5222 C   0  0  0  0  0  0  0  0  0  0  0  0
   -2.3359    3.8436    0.2493 C   0  0  0  0  0  0  0  0  0  0  0  0
   -1.7064    2.4781   -0.5631 S   0  0  0  0  0  0  0  0  0  0  0  0
    0.9554   -1.5055    1.1216 S   0  0  0  0  0  0  0  0  0  0  0  0
    2.5031   -0.8912    0.4949 C   0  0  0  0  0  0  0  0  0  0  0  0
    3.6609   -1.1032    1.2533 C   0  0  0  0  0  0  0  0  0  0  0  0
    4.9067   -0.7010    0.7695 C   0  0  0  0  0  0  0  0  0  0  0  0
    5.0053   -0.0996   -0.4826 C   0  0  0  0  0  0  0  0  0  0  0  0
    3.8579    0.1045   -1.2502 C   0  0  0  0  0  0  0  0  0  0  0  0
    2.6047   -0.2772   -0.7596 C   0  0  0  0  0  0  0  0  0  0  0  0
    1.4912   -0.0742   -1.5853 N   0  0  0  0  0  0  0  0  0  0  0  0
    0.1703   -0.2159   -1.2305 C   0  0  0  0  0  0  0  0  0  0  0  0
   -0.6660   -0.1579   -2.1385 O   0  0  0  0  0  0  0  0  0  0  0  0
   -4.2721   -0.8563   -0.7395 H   0  0  0  0  0  0  0  0  0  0  0  0
   -3.7980   -1.8655   -2.0995 H   0  0  0  0  0  0  0  0  0  0  0  0
   -5.1141   -2.3952   -1.0243 H   0  0  0  0  0  0  0  0  0  0  0  0
   -3.4607   -2.6535    0.8596 H   0  0  0  0  0  0  0  0  0  0  0  0
   -3.0233   -3.6492   -0.5261 H   0  0  0  0  0  0  0  0  0  0  0  0
    0.2539    0.8076    1.9392 H   0  0  0  0  0  0  0  0  0  0  0  0
   -2.0423    4.6562    2.2588 H   0  0  0  0  0  0  0  0  0  0  0  0
   -3.0277    4.5226   -0.2268 H   0  0  0  0  0  0  0  0  0  0  0  0
    3.6037   -1.5890    2.2252 H   0  0  0  0  0  0  0  0  0  0  0  0
    5.8002   -0.8656    1.3671 H   0  0  0  0  0  0  0  0  0  0  0  0
    5.9764    0.2082   -0.8628 H   0  0  0  0  0  0  0  0  0  0  0  0
    3.9553    0.5734   -2.2261 H   0  0  0  0  0  0  0  0  0  0  0  0
    1.6378    0.1721   -2.5562 H   0  0  0  0  0  0  0  0  0  0  0  0
  1  2  1  0
  2  3  1  0
  3  4  1  0
  4  5  2  0
  4  6  1  0
  6  7  1  0
  7  8  1  0
  8  9  2  0
  9 10  1  0
 10 11  2  0
 11 12  1  0
  6 13  1  0
 13 14  1  0
 14 15  2  0
 15 16  1  0
 16 17  2  0
 17 18  1  0
 18 19  2  0
 19 20  1  0
 20 21  1  0
 21 22  2  0
 21  6  1  0
 12  8  1  0
 19 14  1  0
  1 23  1  0
  1 24  1  0
  1 25  1  0
  2 26  1  0
  2 27  1  0
  7 28  1  0
 10 29  1  0
 11 30  1  0
 15 31  1  0
 16 32  1  0
 17 33  1  0
 18 34  1  0
 20 35  1  0
M  END
