
     RDKit          3D

 47 49  0  0  0  0  0  0  0  0999 V2000
    4.2637    4.0166    0.6571 C   0  0  0  0  0  0  0  0  0  0  0  0
    2.9093    3.3656    0.8616 C   0  0  0  0  0  0  0  0  0  0  0  0
    2.9902    2.0148    0.3893 O   0  0  0  0  0  0  0  0  0  0  0  0
    1.8385    1.3013    0.5452 C   0  0  0  0  0  0  0  0  0  0  0  0
    0.7986    1.7421    1.0162 O   0  0  0  0  0  0  0  0  0  0  0  0
    2.0357   -0.0502    0.0808 C   0  0  0  0  0  0  0  0  0  0  0  0
    3.2090   -0.5051   -0.4673 N   0  0  0  0  0  0  0  0  0  0  0  0
    3.1053   -1.8202   -0.8364 C   0  0  0  0  0  0  0  0  0  0  0  0
    4.0561   -2.6456   -1.4524 C   0  0  0  0  0  0  0  0  0  0  0  0
    3.6872   -3.9573   -1.7498 C   0  0  0  0  0  0  0  0  0  0  0  0
    2.4124   -4.4171   -1.4472 C   0  0  0  0  0  0  0  0  0  0  0  0
    1.4770   -3.5755   -0.8289 C   0  0  0  0  0  0  0  0  0  0  0  0
    1.8182   -2.2461   -0.4935 C   0  0  0  0  0  0  0  0  0  0  0  0
    1.1533   -1.1250    0.1119 C   0  0  0  0  0  0  0  0  0  0  0  0
   -0.1193   -0.9725    0.6441 N   0  0  0  0  0  0  0  0  0  0  0  0
   -1.0498   -1.9413    0.9581 C   0  0  0  0  0  0  0  0  0  0  0  0
   -0.8967   -3.1586    0.9348 O   0  0  0  0  0  0  0  0  0  0  0  0
   -2.3588   -1.3352    1.4877 C   0  0  0  0  0  0  0  0  0  0  0  0
   -2.7192   -0.0885    0.7691 N   0  0  0  0  0  0  0  0  0  0  0  0
   -3.8070    0.6120    1.4540 C   0  0  0  0  0  0  0  0  0  0  0  0
   -4.0237    1.9998    0.8393 C   0  0  0  0  0  0  0  0  0  0  0  0
   -3.8848    2.0178   -0.6847 C   0  0  0  0  0  0  0  0  0  0  0  0
   -4.0559    0.6226   -1.2634 C   0  0  0  0  0  0  0  0  0  0  0  0
   -3.0575   -0.3661   -0.6445 C   0  0  0  0  0  0  0  0  0  0  0  0
    4.5284    4.0226   -0.4057 H   0  0  0  0  0  0  0  0  0  0  0  0
    4.2632    5.0454    1.0290 H   0  0  0  0  0  0  0  0  0  0  0  0
    5.0458    3.4533    1.1774 H   0  0  0  0  0  0  0  0  0  0  0  0
    2.1465    3.9117    0.2958 H   0  0  0  0  0  0  0  0  0  0  0  0
    2.6549    3.3699    1.9273 H   0  0  0  0  0  0  0  0  0  0  0  0
    4.0329    0.0661   -0.5951 H   0  0  0  0  0  0  0  0  0  0  0  0
    5.0482   -2.2817   -1.6995 H   0  0  0  0  0  0  0  0  0  0  0  0
    4.4025   -4.6231   -2.2301 H   0  0  0  0  0  0  0  0  0  0  0  0
    2.1297   -5.4378   -1.6923 H   0  0  0  0  0  0  0  0  0  0  0  0
    0.4867   -3.9679   -0.6267 H   0  0  0  0  0  0  0  0  0  0  0  0
   -0.4139   -0.0163    0.8575 H   0  0  0  0  0  0  0  0  0  0  0  0
   -2.1843   -1.1220    2.5501 H   0  0  0  0  0  0  0  0  0  0  0  0
   -3.1597   -2.0840    1.4136 H   0  0  0  0  0  0  0  0  0  0  0  0
   -3.5679    0.7517    2.5163 H   0  0  0  0  0  0  0  0  0  0  0  0
   -4.7360    0.0277    1.4137 H   0  0  0  0  0  0  0  0  0  0  0  0
   -5.0237    2.3537    1.1194 H   0  0  0  0  0  0  0  0  0  0  0  0
   -3.3107    2.7159    1.2640 H   0  0  0  0  0  0  0  0  0  0  0  0
   -4.6173    2.7083   -1.1210 H   0  0  0  0  0  0  0  0  0  0  0  0
   -2.8923    2.4020   -0.9541 H   0  0  0  0  0  0  0  0  0  0  0  0
   -5.0827    0.2772   -1.0754 H   0  0  0  0  0  0  0  0  0  0  0  0
   -3.9285    0.6450   -2.3483 H   0  0  0  0  0  0  0  0  0  0  0  0
   -2.1289   -0.3291   -1.2268 H   0  0  0  0  0  0  0  0  0  0  0  0
   -3.4745   -1.3772   -0.7729 H   0  0  0  0  0  0  0  0  0  0  0  0
  1  2  1  0
  2  3  1  0
  3  4  1  0
  4  5  2  0
  4  6  1  0
  6  7  1  0
  7  8  1  0
  8  9  2  0
  9 10  1  0
 10 11  2  0
 11 12  1  0
 12 13  2  0
 13 14  1  0
 14 15  1  0
 15 16  1  0
 16 17  2  0
 16 18  1  0
 18 19  1  0
 19 20  1  0
 20 21  1  0
 21 22  1  0
 22 23  1  0
 23 24  1  0
 14  6  2  0
 24 19  1  0
 13  8  1  0
  1 25  1  0
  1 26  1  0
  1 27  1  0
  2 28  1  0
  2 29  1  0
  7 30  1  0
  9 31  1  0
 10 32  1  0
 11 33  1  0
 12 34  1  0
 15 35  1  0
 18 36  1  0
 18 37  1  0
 20 38  1  0
 20 39  1  0
 21 40  1  0
 21 41  1  0
 22 42  1  0
 22 43  1  0
 23 44  1  0
 23 45  1  0
 24 46  1  0
 24 47  1  0
M  END
