
     RDKit          3D

 35 37  0  0  0  0  0  0  0  0999 V2000
    7.0378   -0.8646   -0.4070 C   0  0  0  0  0  0  0  0  0  0  0  0
    6.3838    0.4511   -0.7844 C   0  0  0  0  0  0  0  0  0  0  0  0
    4.9631    0.3693   -0.5929 O   0  0  0  0  0  0  0  0  0  0  0  0
    4.5066    0.6610    0.6507 C   0  0  0  0  0  0  0  0  0  0  0  0
    5.2116    0.9791    1.5992 O   0  0  0  0  0  0  0  0  0  0  0  0
    3.0130    0.5469    0.7422 C   0  0  0  0  0  0  0  0  0  0  0  0
    2.4797    0.8323    1.9389 C   0  0  0  0  0  0  0  0  0  0  0  0
    1.0440    0.7898    2.2702 C   0  0  0  0  0  0  0  0  0  0  0  0
    0.6236    1.0638    3.3868 O   0  0  0  0  0  0  0  0  0  0  0  0
    0.1913    0.4188    1.2358 N   0  0  0  0  0  0  0  0  0  0  0  0
   -1.1532    0.3382    1.4012 N   0  0  0  0  0  0  0  0  0  0  0  0
   -1.5748   -0.0430    0.1854 C   0  0  0  0  0  0  0  0  0  0  0  0
   -2.9759   -0.2713   -0.1571 C   0  0  0  0  0  0  0  0  0  0  0  0
   -3.3326   -0.6713   -1.4521 C   0  0  0  0  0  0  0  0  0  0  0  0
   -4.6723   -0.8921   -1.7876 C   0  0  0  0  0  0  0  0  0  0  0  0
   -5.6815   -0.7066   -0.8367 C   0  0  0  0  0  0  0  0  0  0  0  0
   -7.1150   -0.9758   -1.1866 C   0  0  0  0  0  0  0  0  0  0  0  0
   -5.3289   -0.3216    0.4613 C   0  0  0  0  0  0  0  0  0  0  0  0
   -3.9890   -0.1010    0.7963 C   0  0  0  0  0  0  0  0  0  0  0  0
   -0.5598   -0.2049   -0.7319 N   0  0  0  0  0  0  0  0  0  0  0  0
    0.5174    0.0889   -0.0481 C   0  0  0  0  0  0  0  0  0  0  0  0
    2.1248    0.0689   -0.6606 S   0  0  0  0  0  0  0  0  0  0  0  0
    8.1131   -0.8338   -0.6041 H   0  0  0  0  0  0  0  0  0  0  0  0
    6.8830   -1.0907    0.6527 H   0  0  0  0  0  0  0  0  0  0  0  0
    6.5976   -1.6899   -0.9763 H   0  0  0  0  0  0  0  0  0  0  0  0
    6.5518    0.6548   -1.8469 H   0  0  0  0  0  0  0  0  0  0  0  0
    6.8136    1.2890   -0.2236 H   0  0  0  0  0  0  0  0  0  0  0  0
    3.1010    1.1273    2.7822 H   0  0  0  0  0  0  0  0  0  0  0  0
   -2.5671   -0.8173   -2.2119 H   0  0  0  0  0  0  0  0  0  0  0  0
   -4.9202   -1.2091   -2.7982 H   0  0  0  0  0  0  0  0  0  0  0  0
   -7.3574   -2.0247   -0.9905 H   0  0  0  0  0  0  0  0  0  0  0  0
   -7.7864   -0.3411   -0.5987 H   0  0  0  0  0  0  0  0  0  0  0  0
   -7.3065   -0.7594   -2.2429 H   0  0  0  0  0  0  0  0  0  0  0  0
   -6.0938   -0.1889    1.2233 H   0  0  0  0  0  0  0  0  0  0  0  0
   -3.7424    0.2034    1.8121 H   0  0  0  0  0  0  0  0  0  0  0  0
  1  2  1  0
  2  3  1  0
  3  4  1  0
  4  5  2  0
  4  6  1  0
  6  7  2  0
  7  8  1  0
  8  9  2  0
  8 10  1  0
 10 11  1  0
 11 12  2  0
 12 13  1  0
 13 14  2  0
 14 15  1  0
 15 16  2  0
 16 17  1  0
 16 18  1  0
 18 19  2  0
 12 20  1  0
 20 21  2  0
 21 22  1  0
 22  6  1  0
 21 10  1  0
 19 13  1  0
  1 23  1  0
  1 24  1  0
  1 25  1  0
  2 26  1  0
  2 27  1  0
  7 28  1  0
 14 29  1  0
 15 30  1  0
 17 31  1  0
 17 32  1  0
 17 33  1  0
 18 34  1  0
 19 35  1  0
M  END
