
     RDKit          3D

 37 38  0  0  0  0  0  0  0  0999 V2000
    6.8270    1.6614    1.3163 C   0  0  0  0  0  0  0  0  0  0  0  0
    6.2150    0.3977    1.8909 C   0  0  0  0  0  0  0  0  0  0  0  0
    4.8418    0.2865    1.4888 O   0  0  0  0  0  0  0  0  0  0  0  0
    4.6232   -0.3187    0.2955 C   0  0  0  0  0  0  0  0  0  0  0  0
    5.4794   -0.7624   -0.4534 O   0  0  0  0  0  0  0  0  0  0  0  0
    3.1666   -0.3757   -0.0047 C   0  0  0  0  0  0  0  0  0  0  0  0
    2.7596   -0.9771   -1.2009 C   0  0  0  0  0  0  0  0  0  0  0  0
    1.4011   -1.0540   -1.5275 C   0  0  0  0  0  0  0  0  0  0  0  0
    0.4275   -0.5368   -0.6638 C   0  0  0  0  0  0  0  0  0  0  0  0
   -0.9184   -0.6452   -1.0707 N   0  0  0  0  0  0  0  0  0  0  0  0
   -2.0524   -0.3577   -0.3228 C   0  0  0  0  0  0  0  0  0  0  0  0
   -2.0523   -0.0513    0.8616 O   0  0  0  0  0  0  0  0  0  0  0  0
   -3.1861   -0.4688   -1.1167 N   0  0  0  0  0  0  0  0  0  0  0  0
   -4.5324   -0.3668   -0.7087 C   0  0  0  0  0  0  0  0  0  0  0  0
   -5.5061   -0.3324   -1.7186 C   0  0  0  0  0  0  0  0  0  0  0  0
   -6.8627   -0.2422   -1.3960 C   0  0  0  0  0  0  0  0  0  0  0  0
   -7.2465   -0.1916   -0.0630 C   0  0  0  0  0  0  0  0  0  0  0  0
   -8.5464   -0.1064    0.2474 F   0  0  0  0  0  0  0  0  0  0  0  0
   -6.2992   -0.2323    0.9507 C   0  0  0  0  0  0  0  0  0  0  0  0
   -4.9412   -0.3225    0.6279 C   0  0  0  0  0  0  0  0  0  0  0  0
    0.8370    0.0702    0.5252 C   0  0  0  0  0  0  0  0  0  0  0  0
    2.1967    0.1492    0.8561 C   0  0  0  0  0  0  0  0  0  0  0  0
    6.2440    2.5398    1.6123 H   0  0  0  0  0  0  0  0  0  0  0  0
    6.8288    1.6346    0.2220 H   0  0  0  0  0  0  0  0  0  0  0  0
    7.8561    1.7869    1.6642 H   0  0  0  0  0  0  0  0  0  0  0  0
    6.2248    0.4483    2.9846 H   0  0  0  0  0  0  0  0  0  0  0  0
    6.7879   -0.4918    1.6046 H   0  0  0  0  0  0  0  0  0  0  0  0
    3.4987   -1.3894   -1.8857 H   0  0  0  0  0  0  0  0  0  0  0  0
    1.1219   -1.5281   -2.4651 H   0  0  0  0  0  0  0  0  0  0  0  0
   -1.0781   -1.1253   -1.9428 H   0  0  0  0  0  0  0  0  0  0  0  0
   -3.0258   -0.4718   -2.1121 H   0  0  0  0  0  0  0  0  0  0  0  0
   -5.2249   -0.3713   -2.7676 H   0  0  0  0  0  0  0  0  0  0  0  0
   -7.6190   -0.2115   -2.1736 H   0  0  0  0  0  0  0  0  0  0  0  0
   -6.6169   -0.1958    1.9879 H   0  0  0  0  0  0  0  0  0  0  0  0
   -4.2279   -0.3635    1.4456 H   0  0  0  0  0  0  0  0  0  0  0  0
    0.1225    0.5019    1.2203 H   0  0  0  0  0  0  0  0  0  0  0  0
    2.4767    0.6274    1.7919 H   0  0  0  0  0  0  0  0  0  0  0  0
  1  2  1  0
  2  3  1  0
  3  4  1  0
  4  5  2  0
  4  6  1  0
  6  7  2  0
  7  8  1  0
  8  9  2  0
  9 10  1  0
 10 11  1  0
 11 12  2  0
 11 13  1  0
 13 14  1  0
 14 15  2  0
 15 16  1  0
 16 17  2  0
 17 18  1  0
 17 19  1  0
 19 20  2  0
  9 21  1  0
 21 22  2  0
 22  6  1  0
 20 14  1  0
  1 23  1  0
  1 24  1  0
  1 25  1  0
  2 26  1  0
  2 27  1  0
  7 28  1  0
  8 29  1  0
 10 30  1  0
 13 31  1  0
 15 32  1  0
 16 33  1  0
 19 34  1  0
 20 35  1  0
 21 36  1  0
 22 37  1  0
M  END
