
     RDKit          3D

 41 43  0  0  0  0  0  0  0  0999 V2000
    5.6461    1.6304   -0.6294 C   0  0  0  0  0  0  0  0  0  0  0  0
    4.4203    1.6651    0.2622 C   0  0  0  0  0  0  0  0  0  0  0  0
    3.4958    0.6773   -0.2107 O   0  0  0  0  0  0  0  0  0  0  0  0
    2.3435    0.5947    0.5133 C   0  0  0  0  0  0  0  0  0  0  0  0
    2.0739    1.2904    1.4819 O   0  0  0  0  0  0  0  0  0  0  0  0
    1.4425   -0.4705   -0.0711 C   0  0  0  0  0  0  0  0  0  0  0  0
    2.0878   -1.8579    0.0553 C   0  0  0  0  0  0  0  0  0  0  0  0
    1.0542   -2.9726    0.2256 C   0  0  0  0  0  0  0  0  0  0  0  0
   -0.2355   -2.6443   -0.5178 C   0  0  0  0  0  0  0  0  0  0  0  0
   -0.8592   -1.4054   -0.0046 N   0  0  0  0  0  0  0  0  0  0  0  0
   -2.0165   -1.5936    0.7167 C   0  0  0  0  0  0  0  0  0  0  0  0
   -2.3137   -2.6259    1.4823 N   0  0  0  0  0  0  0  0  0  0  0  0
   -3.4742   -2.3183    2.1314 N   0  0  0  0  0  0  0  0  0  0  0  0
   -3.9212   -1.1273    1.7725 N   0  0  0  0  0  0  0  0  0  0  0  0
   -3.0739   -0.6741    0.8105 N   0  0  0  0  0  0  0  0  0  0  0  0
   -3.3678    0.5109    0.0815 C   0  0  0  0  0  0  0  0  0  0  0  0
   -4.3971    1.3547    0.5325 C   0  0  0  0  0  0  0  0  0  0  0  0
   -4.7111    2.5226   -0.1666 C   0  0  0  0  0  0  0  0  0  0  0  0
   -4.0115    2.8527   -1.3245 C   0  0  0  0  0  0  0  0  0  0  0  0
   -3.0023    2.0125   -1.7898 C   0  0  0  0  0  0  0  0  0  0  0  0
   -2.6822    0.8427   -1.0942 C   0  0  0  0  0  0  0  0  0  0  0  0
    0.0805   -0.4372    0.6224 C   0  0  0  0  0  0  0  0  0  0  0  0
    5.3717    1.8331   -1.6700 H   0  0  0  0  0  0  0  0  0  0  0  0
    6.1090    0.6382   -0.6098 H   0  0  0  0  0  0  0  0  0  0  0  0
    6.3836    2.3709   -0.3078 H   0  0  0  0  0  0  0  0  0  0  0  0
    3.9566    2.6568    0.2159 H   0  0  0  0  0  0  0  0  0  0  0  0
    4.7073    1.4384    1.2950 H   0  0  0  0  0  0  0  0  0  0  0  0
    1.2918   -0.2265   -1.1316 H   0  0  0  0  0  0  0  0  0  0  0  0
    2.7961   -1.8985    0.8923 H   0  0  0  0  0  0  0  0  0  0  0  0
    2.6808   -2.0487   -0.8485 H   0  0  0  0  0  0  0  0  0  0  0  0
    0.8392   -3.1105    1.2928 H   0  0  0  0  0  0  0  0  0  0  0  0
    1.4721   -3.9183   -0.1372 H   0  0  0  0  0  0  0  0  0  0  0  0
   -0.0153   -2.4935   -1.5822 H   0  0  0  0  0  0  0  0  0  0  0  0
   -0.9211   -3.4999   -0.4725 H   0  0  0  0  0  0  0  0  0  0  0  0
   -4.9625    1.1256    1.4345 H   0  0  0  0  0  0  0  0  0  0  0  0
   -5.5043    3.1732    0.1942 H   0  0  0  0  0  0  0  0  0  0  0  0
   -4.2589    3.7606   -1.8689 H   0  0  0  0  0  0  0  0  0  0  0  0
   -2.4681    2.2633   -2.7032 H   0  0  0  0  0  0  0  0  0  0  0  0
   -1.9135    0.2009   -1.5138 H   0  0  0  0  0  0  0  0  0  0  0  0
   -0.3408    0.5735    0.5607 H   0  0  0  0  0  0  0  0  0  0  0  0
    0.1978   -0.6655    1.6918 H   0  0  0  0  0  0  0  0  0  0  0  0
  1  2  1  0
  2  3  1  0
  3  4  1  0
  4  5  2  0
  4  6  1  0
  6  7  1  0
  7  8  1  0
  8  9  1  0
  9 10  1  0
 10 11  1  0
 11 12  2  0
 12 13  1  0
 13 14  2  0
 14 15  1  0
 15 16  1  0
 16 17  2  0
 17 18  1  0
 18 19  2  0
 19 20  1  0
 20 21  2  0
 10 22  1  0
 22  6  1  0
 15 11  1  0
 21 16  1  0
  1 23  1  0
  1 24  1  0
  1 25  1  0
  2 26  1  0
  2 27  1  0
  6 28  1  0
  7 29  1  0
  7 30  1  0
  8 31  1  0
  8 32  1  0
  9 33  1  0
  9 34  1  0
 17 35  1  0
 18 36  1  0
 19 37  1  0
 20 38  1  0
 21 39  1  0
 22 40  1  0
 22 41  1  0
M  END
