
     RDKit          3D

 35 36  0  0  0  0  0  0  0  0999 V2000
    6.2946   -1.5127   -0.9285 C   0  0  0  0  0  0  0  0  0  0  0  0
    4.8673   -1.6979   -0.4516 C   0  0  0  0  0  0  0  0  0  0  0  0
    4.1463   -0.4904   -0.7221 O   0  0  0  0  0  0  0  0  0  0  0  0
    2.8310   -0.5303   -0.3528 C   0  0  0  0  0  0  0  0  0  0  0  0
    2.3037   -1.4878    0.1973 O   0  0  0  0  0  0  0  0  0  0  0  0
    2.1423    0.7130   -0.6430 C   0  0  0  0  0  0  0  0  0  0  0  0
    2.7532    1.9328   -0.8593 C   0  0  0  0  0  0  0  0  0  0  0  0
    1.8343    2.9122   -1.0384 O   0  0  0  0  0  0  0  0  0  0  0  0
    0.6150    2.3256   -0.9581 C   0  0  0  0  0  0  0  0  0  0  0  0
    0.7328    0.9668   -0.7312 C   0  0  0  0  0  0  0  0  0  0  0  0
   -0.3641    0.0083   -0.6683 C   0  0  0  0  0  0  0  0  0  0  0  0
   -0.2410   -1.1075   -1.1548 O   0  0  0  0  0  0  0  0  0  0  0  0
   -1.4955    0.5075   -0.0532 N   0  0  0  0  0  0  0  0  0  0  0  0
   -2.7426   -0.1331    0.1666 C   0  0  0  0  0  0  0  0  0  0  0  0
   -2.9865   -1.4516   -0.2383 C   0  0  0  0  0  0  0  0  0  0  0  0
   -4.2244   -2.0601   -0.0064 C   0  0  0  0  0  0  0  0  0  0  0  0
   -5.2416   -1.3622    0.6342 C   0  0  0  0  0  0  0  0  0  0  0  0
   -5.0237   -0.0493    1.0460 C   0  0  0  0  0  0  0  0  0  0  0  0
   -3.7832    0.5730    0.8183 C   0  0  0  0  0  0  0  0  0  0  0  0
   -3.5763    1.9800    1.2603 C   0  0  0  0  0  0  0  0  0  0  0  0
   -2.5587    2.6311    1.0893 O   0  0  0  0  0  0  0  0  0  0  0  0
   -4.6387    2.5088    1.8924 O   0  0  0  0  0  0  0  0  0  0  0  0
    6.3170   -1.2897   -2.0004 H   0  0  0  0  0  0  0  0  0  0  0  0
    6.7651   -0.6662   -0.4174 H   0  0  0  0  0  0  0  0  0  0  0  0
    6.8881   -2.4121   -0.7423 H   0  0  0  0  0  0  0  0  0  0  0  0
    4.4045   -2.5344   -0.9872 H   0  0  0  0  0  0  0  0  0  0  0  0
    4.8613   -1.8989    0.6256 H   0  0  0  0  0  0  0  0  0  0  0  0
    3.7864    2.2523   -0.8921 H   0  0  0  0  0  0  0  0  0  0  0  0
   -0.2261    2.9901   -1.1081 H   0  0  0  0  0  0  0  0  0  0  0  0
   -1.4296    1.4542    0.3209 H   0  0  0  0  0  0  0  0  0  0  0  0
   -2.2285   -2.0474   -0.7383 H   0  0  0  0  0  0  0  0  0  0  0  0
   -4.3867   -3.0863   -0.3291 H   0  0  0  0  0  0  0  0  0  0  0  0
   -6.2020   -1.8394    0.8131 H   0  0  0  0  0  0  0  0  0  0  0  0
   -5.8315    0.4817    1.5447 H   0  0  0  0  0  0  0  0  0  0  0  0
   -4.3623    3.4198    2.1264 H   0  0  0  0  0  0  0  0  0  0  0  0
  1  2  1  0
  2  3  1  0
  3  4  1  0
  4  5  2  0
  4  6  1  0
  6  7  2  0
  7  8  1  0
  8  9  1  0
  9 10  2  0
 10 11  1  0
 11 12  2  0
 11 13  1  0
 13 14  1  0
 14 15  2  0
 15 16  1  0
 16 17  2  0
 17 18  1  0
 18 19  2  0
 19 20  1  0
 20 21  2  0
 20 22  1  0
 10  6  1  0
 19 14  1  0
  1 23  1  0
  1 24  1  0
  1 25  1  0
  2 26  1  0
  2 27  1  0
  7 28  1  0
  9 29  1  0
 13 30  1  0
 15 31  1  0
 16 32  1  0
 17 33  1  0
 18 34  1  0
 22 35  1  0
M  END
