
     RDKit          3D

 40 45  0  0  0  0  0  0  0  0999 V2000
    5.5042    1.4671    0.7337 Si  0  0  0  0  0  4  0  0  0  0  0  0
    7.0733    0.5389    0.3109 C   0  0  0  0  0  0  0  0  0  0  0  0
    6.7871   -0.6643   -0.2161 C   0  0  0  0  0  0  0  0  0  0  0  0
    5.3682   -0.9648   -0.3356 C   0  0  0  0  0  0  0  0  0  0  0  0
    4.5134   -0.0060    0.0940 C   0  0  0  0  0  0  0  0  0  0  0  0
    3.0474   -0.0878    0.0713 C   0  0  0  0  0  0  0  0  0  0  0  0
    2.2120    0.9255    0.5217 C   0  0  0  0  0  0  0  0  0  0  0  0
    0.8529    0.6570    0.4162 C   0  0  0  0  0  0  0  0  0  0  0  0
   -0.1308    1.5103    0.7979 O   0  0  0  0  0  0  0  0  0  0  0  0
   -1.3153    0.8974    0.5403 C   0  0  0  0  0  0  0  0  0  0  0  0
   -2.5677    1.4253    0.7820 C   0  0  0  0  0  0  0  0  0  0  0  0
   -2.9635    3.0637    1.5018 Si  0  0  0  0  0  4  0  0  0  0  0  0
   -4.7791    2.6085    1.3185 C   0  0  0  0  0  0  0  0  0  0  0  0
   -4.9647    1.3859    0.7856 C   0  0  0  0  0  0  0  0  0  0  0  0
   -3.7108    0.6632    0.4588 C   0  0  0  0  0  0  0  0  0  0  0  0
   -3.5868   -0.6219   -0.1041 C   0  0  0  0  0  0  0  0  0  0  0  0
   -4.6987   -1.4231   -0.4447 C   0  0  0  0  0  0  0  0  0  0  0  0
   -4.5424   -2.6938   -1.0016 C   0  0  0  0  0  0  0  0  0  0  0  0
   -3.2704   -3.1986   -1.2333 C   0  0  0  0  0  0  0  0  0  0  0  0
   -2.1480   -2.4361   -0.9097 C   0  0  0  0  0  0  0  0  0  0  0  0
   -2.2788   -1.1479   -0.3454 C   0  0  0  0  0  0  0  0  0  0  0  0
   -1.1174   -0.3682   -0.0147 C   0  0  0  0  0  0  0  0  0  0  0  0
    0.3119   -0.5147   -0.0913 C   0  0  0  0  0  0  0  0  0  0  0  0
    1.2200   -1.4795   -0.5211 C   0  0  0  0  0  0  0  0  0  0  0  0
    2.5576   -1.2520   -0.4335 N   0  0  0  0  0  0  0  0  0  0  0  0
    5.3188    2.6833   -0.0966 H   0  0  0  0  0  0  0  0  0  0  0  0
    5.3394    1.6749    2.1940 H   0  0  0  0  0  0  0  0  0  0  0  0
    8.0525    0.9554    0.4855 H   0  0  0  0  0  0  0  0  0  0  0  0
    7.5348   -1.3790   -0.5374 H   0  0  0  0  0  0  0  0  0  0  0  0
    5.0474   -1.9143   -0.7506 H   0  0  0  0  0  0  0  0  0  0  0  0
    2.5497    1.8656    0.9296 H   0  0  0  0  0  0  0  0  0  0  0  0
   -2.5954    3.2110    2.9325 H   0  0  0  0  0  0  0  0  0  0  0  0
   -2.6154    4.2163    0.6332 H   0  0  0  0  0  0  0  0  0  0  0  0
   -5.5520    3.2961    1.6258 H   0  0  0  0  0  0  0  0  0  0  0  0
   -5.9413    0.9587    0.6073 H   0  0  0  0  0  0  0  0  0  0  0  0
   -5.7124   -1.0673   -0.2803 H   0  0  0  0  0  0  0  0  0  0  0  0
   -5.4180   -3.2869   -1.2533 H   0  0  0  0  0  0  0  0  0  0  0  0
   -3.1488   -4.1881   -1.6670 H   0  0  0  0  0  0  0  0  0  0  0  0
   -1.1760   -2.8709   -1.1083 H   0  0  0  0  0  0  0  0  0  0  0  0
    0.9430   -2.4388   -0.9381 H   0  0  0  0  0  0  0  0  0  0  0  0
  1  2  1  0
  2  3  2  0
  3  4  1  0
  4  5  2  0
  5  6  1  0
  6  7  2  0
  7  8  1  0
  8  9  1  0
  9 10  1  0
 10 11  2  0
 11 12  1  0
 12 13  1  0
 13 14  2  0
 14 15  1  0
 15 16  2  0
 16 17  1  0
 17 18  2  0
 18 19  1  0
 19 20  2  0
 20 21  1  0
 21 22  2  0
 22 23  1  0
 23 24  1  0
 24 25  2  0
  5  1  1  0
 25  6  1  0
 23  8  2  0
 22 10  1  0
 15 11  1  0
 21 16  1  0
  1 26  1  0
  1 27  1  0
  2 28  1  0
  3 29  1  0
  4 30  1  0
  7 31  1  0
 12 32  1  0
 12 33  1  0
 13 34  1  0
 14 35  1  0
 17 36  1  0
 18 37  1  0
 19 38  1  0
 20 39  1  0
 24 40  1  0
M  END
