
     RDKit          3D

 45 48  0  0  0  0  0  0  0  0999 V2000
    7.1983   -0.6161   -0.2182 C   0  0  0  0  0  0  0  0  0  0  0  0
    6.1808   -1.7050   -0.4975 C   0  0  0  0  0  0  0  0  0  0  0  0
    4.8734   -1.1485   -0.3135 O   0  0  0  0  0  0  0  0  0  0  0  0
    3.8496   -2.0298   -0.5431 C   0  0  0  0  0  0  0  0  0  0  0  0
    4.0329   -3.1990   -0.8655 O   0  0  0  0  0  0  0  0  0  0  0  0
    2.5643   -1.3847   -0.3375 C   0  0  0  0  0  0  0  0  0  0  0  0
    1.1576   -2.3674   -0.4378 S   0  0  0  0  0  0  0  0  0  0  0  0
    0.1241   -1.0618   -0.1040 C   0  0  0  0  0  0  0  0  0  0  0  0
   -1.2097   -1.2619   -0.0325 N   0  0  0  0  0  0  0  0  0  0  0  0
   -1.9630   -0.1793    0.2262 C   0  0  0  0  0  0  0  0  0  0  0  0
   -3.3677   -0.3072    0.3192 N   0  0  0  0  0  0  0  0  0  0  0  0
   -3.9847   -0.0436   -1.0025 C   0  0  0  0  0  0  0  0  0  0  0  0
   -5.5140   -0.1536   -0.8746 C   0  0  0  0  0  0  0  0  0  0  0  0
   -5.9154   -1.4434   -0.3821 O   0  0  0  0  0  0  0  0  0  0  0  0
   -5.3066   -1.7031    0.8959 C   0  0  0  0  0  0  0  0  0  0  0  0
   -3.7726   -1.6469    0.8076 C   0  0  0  0  0  0  0  0  0  0  0  0
   -1.3932    1.0729    0.4016 C   0  0  0  0  0  0  0  0  0  0  0  0
   -0.0031    1.2518    0.3264 C   0  0  0  0  0  0  0  0  0  0  0  0
    0.8096    0.1362    0.0686 C   0  0  0  0  0  0  0  0  0  0  0  0
    2.2275   -0.0700   -0.0545 C   0  0  0  0  0  0  0  0  0  0  0  0
    3.1320    0.9296    0.0873 N   0  0  0  0  0  0  0  0  0  0  0  0
    0.3532    2.6877    0.6012 C   0  0  0  0  0  0  0  0  0  0  0  0
   -0.9959    3.3840    0.3991 C   0  0  0  0  0  0  0  0  0  0  0  0
   -2.0713    2.3581    0.7709 C   0  0  0  0  0  0  0  0  0  0  0  0
    8.2173   -0.9920   -0.3455 H   0  0  0  0  0  0  0  0  0  0  0  0
    7.0859   -0.2363    0.8027 H   0  0  0  0  0  0  0  0  0  0  0  0
    7.0478    0.2339   -0.8920 H   0  0  0  0  0  0  0  0  0  0  0  0
    6.3302   -2.5376    0.1989 H   0  0  0  0  0  0  0  0  0  0  0  0
    6.2917   -2.0584   -1.5287 H   0  0  0  0  0  0  0  0  0  0  0  0
   -3.7313    0.9575   -1.3688 H   0  0  0  0  0  0  0  0  0  0  0  0
   -3.6305   -0.7794   -1.7372 H   0  0  0  0  0  0  0  0  0  0  0  0
   -5.9797   -0.0150   -1.8553 H   0  0  0  0  0  0  0  0  0  0  0  0
   -5.9084    0.6188   -0.2036 H   0  0  0  0  0  0  0  0  0  0  0  0
   -5.6878   -0.9768    1.6236 H   0  0  0  0  0  0  0  0  0  0  0  0
   -5.6252   -2.6997    1.2170 H   0  0  0  0  0  0  0  0  0  0  0  0
   -3.3469   -1.8358    1.8002 H   0  0  0  0  0  0  0  0  0  0  0  0
   -3.4360   -2.4335    0.1192 H   0  0  0  0  0  0  0  0  0  0  0  0
    2.8907    1.7992    0.5513 H   0  0  0  0  0  0  0  0  0  0  0  0
    4.1264    0.7104    0.1546 H   0  0  0  0  0  0  0  0  0  0  0  0
    0.7034    2.7930    1.6330 H   0  0  0  0  0  0  0  0  0  0  0  0
    1.1044    3.0736   -0.0928 H   0  0  0  0  0  0  0  0  0  0  0  0
   -1.1066    3.6545   -0.6604 H   0  0  0  0  0  0  0  0  0  0  0  0
   -1.0807    4.3085    0.9786 H   0  0  0  0  0  0  0  0  0  0  0  0
   -2.2784    2.3756    1.8461 H   0  0  0  0  0  0  0  0  0  0  0  0
   -2.9925    2.5405    0.2125 H   0  0  0  0  0  0  0  0  0  0  0  0
  1  2  1  0
  2  3  1  0
  3  4  1  0
  4  5  2  0
  4  6  1  0
  6  7  1  0
  7  8  1  0
  8  9  2  0
  9 10  1  0
 10 11  1  0
 11 12  1  0
 12 13  1  0
 13 14  1  0
 14 15  1  0
 15 16  1  0
 10 17  2  0
 17 18  1  0
 18 19  2  0
 19 20  1  0
 20 21  1  0
 18 22  1  0
 22 23  1  0
 23 24  1  0
 20  6  2  0
 19  8  1  0
 16 11  1  0
 24 17  1  0
  1 25  1  0
  1 26  1  0
  1 27  1  0
  2 28  1  0
  2 29  1  0
 12 30  1  0
 12 31  1  0
 13 32  1  0
 13 33  1  0
 15 34  1  0
 15 35  1  0
 16 36  1  0
 16 37  1  0
 21 38  1  0
 21 39  1  0
 22 40  1  0
 22 41  1  0
 23 42  1  0
 23 43  1  0
 24 44  1  0
 24 45  1  0
M  END
