
     RDKit          3D

 37 39  0  0  0  0  0  0  0  0999 V2000
    7.5288    1.5014    0.8860 C   0  0  0  0  0  0  0  0  0  0  0  0
    6.2802    1.7773    1.7024 C   0  0  0  0  0  0  0  0  0  0  0  0
    5.3676    0.6737    1.5990 O   0  0  0  0  0  0  0  0  0  0  0  0
    4.5056    0.7094    0.5377 C   0  0  0  0  0  0  0  0  0  0  0  0
    4.4933    1.5846   -0.3168 O   0  0  0  0  0  0  0  0  0  0  0  0
    3.6307   -0.5226    0.5702 C   0  0  0  0  0  0  0  0  0  0  0  0
    2.4623   -0.4365   -0.3562 C   0  0  0  0  0  0  0  0  0  0  0  0
    2.4955   -0.4112   -1.7389 C   0  0  0  0  0  0  0  0  0  0  0  0
    0.9025   -0.3376   -2.3616 S   0  0  0  0  0  0  0  0  0  0  0  0
    0.2885   -0.3642   -0.7761 C   0  0  0  0  0  0  0  0  0  0  0  0
   -1.0496   -0.3118   -0.4833 N   0  0  0  0  0  0  0  0  0  0  0  0
   -2.0948   -0.3368   -1.3756 C   0  0  0  0  0  0  0  0  0  0  0  0
   -2.0383   -0.4776   -2.5902 O   0  0  0  0  0  0  0  0  0  0  0  0
   -3.4430   -0.2185   -0.7498 C   0  0  0  0  0  0  0  0  0  0  0  0
   -3.6650    0.6094    0.3751 C   0  0  0  0  0  0  0  0  0  0  0  0
   -4.9399    0.7061    0.9437 C   0  0  0  0  0  0  0  0  0  0  0  0
   -5.9577   -0.0212    0.3646 C   0  0  0  0  0  0  0  0  0  0  0  0
   -5.7469   -0.8148   -0.7390 C   0  0  0  0  0  0  0  0  0  0  0  0
   -4.5049   -0.9319   -1.3246 C   0  0  0  0  0  0  0  0  0  0  0  0
   -6.8825   -1.4376   -1.1528 O   0  0  0  0  0  0  0  0  0  0  0  0
   -7.8351   -0.9375   -0.1917 C   0  0  0  0  0  0  0  0  0  0  0  0
   -7.2516   -0.0449    0.7811 O   0  0  0  0  0  0  0  0  0  0  0  0
    1.1820   -0.4169    0.1852 N   0  0  0  0  0  0  0  0  0  0  0  0
    7.9929    0.5606    1.1995 H   0  0  0  0  0  0  0  0  0  0  0  0
    8.2557    2.3100    1.0038 H   0  0  0  0  0  0  0  0  0  0  0  0
    7.2890    1.3992   -0.1771 H   0  0  0  0  0  0  0  0  0  0  0  0
    6.5461    1.8738    2.7601 H   0  0  0  0  0  0  0  0  0  0  0  0
    5.8039    2.7181    1.4035 H   0  0  0  0  0  0  0  0  0  0  0  0
    4.2469   -1.3884    0.3034 H   0  0  0  0  0  0  0  0  0  0  0  0
    3.2653   -0.6597    1.5947 H   0  0  0  0  0  0  0  0  0  0  0  0
    3.3544   -0.4179   -2.3950 H   0  0  0  0  0  0  0  0  0  0  0  0
   -1.2272   -0.3294    0.5099 H   0  0  0  0  0  0  0  0  0  0  0  0
   -2.8603    1.2066    0.7973 H   0  0  0  0  0  0  0  0  0  0  0  0
   -5.1282    1.3402    1.8032 H   0  0  0  0  0  0  0  0  0  0  0  0
   -4.3590   -1.5567   -2.2001 H   0  0  0  0  0  0  0  0  0  0  0  0
   -8.6274   -0.4025   -0.7279 H   0  0  0  0  0  0  0  0  0  0  0  0
   -8.2800   -1.7886    0.3365 H   0  0  0  0  0  0  0  0  0  0  0  0
  1  2  1  0
  2  3  1  0
  3  4  1  0
  4  5  2  0
  4  6  1  0
  6  7  1  0
  7  8  2  0
  8  9  1  0
  9 10  1  0
 10 11  1  0
 11 12  1  0
 12 13  2  0
 12 14  1  0
 14 15  2  0
 15 16  1  0
 16 17  2  0
 17 18  1  0
 18 19  2  0
 18 20  1  0
 20 21  1  0
 21 22  1  0
 10 23  2  0
 23  7  1  0
 19 14  1  0
 22 17  1  0
  1 24  1  0
  1 25  1  0
  1 26  1  0
  2 27  1  0
  2 28  1  0
  6 29  1  0
  6 30  1  0
  8 31  1  0
 11 32  1  0
 15 33  1  0
 16 34  1  0
 19 35  1  0
 21 36  1  0
 21 37  1  0
M  END
