
     RDKit          3D

 37 37  0  0  0  0  0  0  0  0999 V2000
   -5.0288    1.4197   -0.4022 C   0  0  0  0  0  0  0  0  0  0  0  0
   -4.0404    2.1613    0.4784 C   0  0  0  0  0  0  0  0  0  0  0  0
   -3.2122    1.2288    1.1892 O   0  0  0  0  0  0  0  0  0  0  0  0
   -2.1156    0.7772    0.5092 C   0  0  0  0  0  0  0  0  0  0  0  0
   -1.7839    1.1528   -0.6059 O   0  0  0  0  0  0  0  0  0  0  0  0
   -1.3572   -0.2080    1.3734 C   0  0  0  0  0  0  0  0  0  0  0  0
   -0.4158   -1.1224    0.6747 N   0  0  0  0  0  0  0  0  0  0  0  0
    0.9627   -0.7349    0.6248 C   0  0  0  0  0  0  0  0  0  0  0  0
    1.8580   -1.4183    1.4515 C   0  0  0  0  0  0  0  0  0  0  0  0
    3.2103   -1.0769    1.4565 C   0  0  0  0  0  0  0  0  0  0  0  0
    3.6709   -0.0426    0.6405 C   0  0  0  0  0  0  0  0  0  0  0  0
    2.7743    0.6531   -0.1801 C   0  0  0  0  0  0  0  0  0  0  0  0
    3.2265    1.7807   -1.0395 C   0  0  0  0  0  0  0  0  0  0  0  0
    4.6622    1.8136   -1.4936 C   0  0  0  0  0  0  0  0  0  0  0  0
    2.4375    2.6718   -1.3421 O   0  0  0  0  0  0  0  0  0  0  0  0
    1.4161    0.3094   -0.1817 C   0  0  0  0  0  0  0  0  0  0  0  0
   -1.0470   -1.9646   -0.6642 S   0  0  0  0  0  6  0  0  0  0  0  0
   -0.4447   -3.6035   -0.3237 C   0  0  0  0  0  0  0  0  0  0  0  0
   -0.4254   -1.5155   -1.8895 O   0  0  0  0  0  0  0  0  0  0  0  0
   -2.4876   -2.0214   -0.5121 O   0  0  0  0  0  0  0  0  0  0  0  0
   -5.7048    2.1198   -0.9011 H   0  0  0  0  0  0  0  0  0  0  0  0
   -5.6226    0.7182    0.1930 H   0  0  0  0  0  0  0  0  0  0  0  0
   -4.5111    0.8302   -1.1655 H   0  0  0  0  0  0  0  0  0  0  0  0
   -4.5833    2.7431    1.2305 H   0  0  0  0  0  0  0  0  0  0  0  0
   -3.4369    2.8696   -0.1008 H   0  0  0  0  0  0  0  0  0  0  0  0
   -0.8192    0.3696    2.1350 H   0  0  0  0  0  0  0  0  0  0  0  0
   -2.0818   -0.8382    1.9043 H   0  0  0  0  0  0  0  0  0  0  0  0
    1.5056   -2.2188    2.0970 H   0  0  0  0  0  0  0  0  0  0  0  0
    3.9036   -1.6114    2.1020 H   0  0  0  0  0  0  0  0  0  0  0  0
    4.7252    0.2190    0.6739 H   0  0  0  0  0  0  0  0  0  0  0  0
    4.7321    2.4037   -2.4125 H   0  0  0  0  0  0  0  0  0  0  0  0
    5.2843    2.2744   -0.7224 H   0  0  0  0  0  0  0  0  0  0  0  0
    5.0220    0.8072   -1.7242 H   0  0  0  0  0  0  0  0  0  0  0  0
    0.7261    0.8482   -0.8290 H   0  0  0  0  0  0  0  0  0  0  0  0
   -0.7891   -3.9112    0.6654 H   0  0  0  0  0  0  0  0  0  0  0  0
    0.6448   -3.6088   -0.3818 H   0  0  0  0  0  0  0  0  0  0  0  0
   -0.8546   -4.2751   -1.0816 H   0  0  0  0  0  0  0  0  0  0  0  0
  1  2  1  0
  2  3  1  0
  3  4  1  0
  4  5  2  0
  4  6  1  0
  6  7  1  0
  7  8  1  0
  8  9  2  0
  9 10  1  0
 10 11  2  0
 11 12  1  0
 12 13  1  0
 13 14  1  0
 13 15  2  0
 12 16  2  0
  7 17  1  0
 17 18  1  0
 17 19  2  0
 17 20  2  0
 16  8  1  0
  1 21  1  0
  1 22  1  0
  1 23  1  0
  2 24  1  0
  2 25  1  0
  6 26  1  0
  6 27  1  0
  9 28  1  0
 10 29  1  0
 11 30  1  0
 14 31  1  0
 14 32  1  0
 14 33  1  0
 16 34  1  0
 18 35  1  0
 18 36  1  0
 18 37  1  0
M  END
