
     RDKit          3D

 43 49  0  0  0  0  0  0  0  0999 V2000
    5.3794   -1.0365   -1.0412 Si  0  0  0  0  0  4  0  0  0  0  0  0
    6.8291   -0.6438    0.0996 C   0  0  0  0  0  0  0  0  0  0  0  0
    6.4227    0.0290    1.1917 C   0  0  0  0  0  0  0  0  0  0  0  0
    4.9941    0.2957    1.2601 C   0  0  0  0  0  0  0  0  0  0  0  0
    4.2757   -0.1506    0.2092 C   0  0  0  0  0  0  0  0  0  0  0  0
    2.8393   -0.0635    0.0459 C   0  0  0  0  0  0  0  0  0  0  0  0
    1.9202   -0.7251    0.8810 C   0  0  0  0  0  0  0  0  0  0  0  0
    0.5082   -0.6135    0.6939 C   0  0  0  0  0  0  0  0  0  0  0  0
   -0.7130   -1.2721    1.7159 S   0  0  0  0  0  0  0  0  0  0  0  0
   -2.0265   -0.6639    0.7441 C   0  0  0  0  0  0  0  0  0  0  0  0
   -1.4873   -0.0680   -0.3966 C   0  0  0  0  0  0  0  0  0  0  0  0
   -2.4325    0.2595   -1.4379 C   0  0  0  0  0  0  0  0  0  0  0  0
   -2.1388    0.5413   -2.7418 C   0  0  0  0  0  0  0  0  0  0  0  0
   -3.5809    0.8774   -3.6126 S   0  0  0  0  0  0  0  0  0  0  0  0
   -4.5627    0.5112   -2.2468 C   0  0  0  0  0  0  0  0  0  0  0  0
   -3.8179    0.1402   -1.1444 C   0  0  0  0  0  0  0  0  0  0  0  0
   -4.4081   -0.3199    0.0580 C   0  0  0  0  0  0  0  0  0  0  0  0
   -5.7925   -0.4152    0.3509 C   0  0  0  0  0  0  0  0  0  0  0  0
   -6.2196   -0.9469    1.5662 C   0  0  0  0  0  0  0  0  0  0  0  0
   -5.2861   -1.3948    2.4964 C   0  0  0  0  0  0  0  0  0  0  0  0
   -3.9171   -1.3088    2.2233 C   0  0  0  0  0  0  0  0  0  0  0  0
   -3.4467   -0.7649    1.0066 C   0  0  0  0  0  0  0  0  0  0  0  0
   -0.0918    0.0929   -0.3425 C   0  0  0  0  0  0  0  0  0  0  0  0
    0.8176    0.8953   -1.1233 C   0  0  0  0  0  0  0  0  0  0  0  0
    0.5908    1.9180   -1.9990 C   0  0  0  0  0  0  0  0  0  0  0  0
    1.8361    2.3520   -2.4021 N   0  0  0  0  0  0  0  0  0  0  0  0
    2.8196    1.6594   -1.7260 C   0  0  0  0  0  0  0  0  0  0  0  0
    2.2034    0.7529   -0.8886 C   0  0  0  0  0  0  0  0  0  0  0  0
    5.5054   -0.3177   -2.3351 H   0  0  0  0  0  0  0  0  0  0  0  0
    5.1273   -2.4975   -1.1183 H   0  0  0  0  0  0  0  0  0  0  0  0
    7.8356   -0.9436   -0.1446 H   0  0  0  0  0  0  0  0  0  0  0  0
    7.0877    0.3571    1.9811 H   0  0  0  0  0  0  0  0  0  0  0  0
    4.5687    0.8149    2.1107 H   0  0  0  0  0  0  0  0  0  0  0  0
    2.2932   -1.3306    1.7060 H   0  0  0  0  0  0  0  0  0  0  0  0
   -1.1945    0.5498   -3.2626 H   0  0  0  0  0  0  0  0  0  0  0  0
   -5.6357    0.5574   -2.3632 H   0  0  0  0  0  0  0  0  0  0  0  0
   -6.5401   -0.0826   -0.3628 H   0  0  0  0  0  0  0  0  0  0  0  0
   -7.2819   -1.0174    1.7856 H   0  0  0  0  0  0  0  0  0  0  0  0
   -5.6215   -1.8128    3.4426 H   0  0  0  0  0  0  0  0  0  0  0  0
   -3.2263   -1.6655    2.9836 H   0  0  0  0  0  0  0  0  0  0  0  0
   -0.2965    2.4213   -2.3535 H   0  0  0  0  0  0  0  0  0  0  0  0
    2.0046    3.1115   -3.0495 H   0  0  0  0  0  0  0  0  0  0  0  0
    3.8591    1.9182   -1.8770 H   0  0  0  0  0  0  0  0  0  0  0  0
  1  2  1  0
  2  3  2  0
  3  4  1  0
  4  5  2  0
  5  6  1  0
  6  7  2  0
  7  8  1  0
  8  9  1  0
  9 10  1  0
 10 11  2  0
 11 12  1  0
 12 13  2  0
 13 14  1  0
 14 15  1  0
 15 16  2  0
 16 17  1  0
 17 18  2  0
 18 19  1  0
 19 20  2  0
 20 21  1  0
 21 22  2  0
 11 23  1  0
 23 24  1  0
 24 25  2  0
 25 26  1  0
 26 27  1  0
 27 28  2  0
  5  1  1  0
 28  6  1  0
 23  8  2  0
 28 24  1  0
 22 10  1  0
 16 12  1  0
 22 17  1  0
  1 29  1  0
  1 30  1  0
  2 31  1  0
  3 32  1  0
  4 33  1  0
  7 34  1  0
 13 35  1  0
 15 36  1  0
 18 37  1  0
 19 38  1  0
 20 39  1  0
 21 40  1  0
 25 41  1  0
 26 42  1  0
 27 43  1  0
M  END
