
     RDKit          3D

 42 43  0  0  0  0  0  0  0  0999 V2000
    2.7101   -2.3527   -0.6554 C   0  0  0  0  0  0  0  0  0  0  0  0
    3.6293   -1.1898   -0.3313 C   0  0  0  0  0  0  0  0  0  0  0  0
    2.8636   -0.0912    0.1822 O   0  0  0  0  0  0  0  0  0  0  0  0
    2.6314   -0.0942    1.5239 C   0  0  0  0  0  0  0  0  0  0  0  0
    3.0424   -0.9502    2.3004 O   0  0  0  0  0  0  0  0  0  0  0  0
    1.7853    1.0929    1.9752 C   0  0  0  0  0  0  0  0  0  0  0  0
    1.2706    1.9326    0.8946 N   0  0  0  0  0  0  0  0  0  0  0  0
    2.0172    3.0383    0.5140 C   0  0  0  0  0  0  0  0  0  0  0  0
    3.0611    3.3776    1.0723 O   0  0  0  0  0  0  0  0  0  0  0  0
    1.5042    3.7705   -0.7201 C   0  0  0  0  0  0  0  0  0  0  0  0
    0.1202    3.7234   -1.0074 O   0  0  0  0  0  0  0  0  0  0  0  0
   -0.4359    2.5023   -0.7443 C   0  0  0  0  0  0  0  0  0  0  0  0
   -1.6195    2.2216   -1.4221 C   0  0  0  0  0  0  0  0  0  0  0  0
   -2.2836    1.0112   -1.2141 C   0  0  0  0  0  0  0  0  0  0  0  0
   -1.7847    0.0598   -0.3135 C   0  0  0  0  0  0  0  0  0  0  0  0
   -2.4804   -1.2919   -0.0645 C   0  0  0  0  0  0  0  0  0  0  0  0
   -3.7568   -1.5025   -0.9101 C   0  0  0  0  0  0  0  0  0  0  0  0
   -2.8931   -1.3975    1.4194 C   0  0  0  0  0  0  0  0  0  0  0  0
   -1.5124   -2.4458   -0.4071 C   0  0  0  0  0  0  0  0  0  0  0  0
   -0.5959    0.3821    0.3812 C   0  0  0  0  0  0  0  0  0  0  0  0
    0.0872    1.5939    0.1800 C   0  0  0  0  0  0  0  0  0  0  0  0
    1.9237   -2.0391   -1.3500 H   0  0  0  0  0  0  0  0  0  0  0  0
    3.2706   -3.1771   -1.1048 H   0  0  0  0  0  0  0  0  0  0  0  0
    2.2094   -2.7203    0.2459 H   0  0  0  0  0  0  0  0  0  0  0  0
    4.4225   -1.4855    0.3647 H   0  0  0  0  0  0  0  0  0  0  0  0
    4.1176   -0.8398   -1.2466 H   0  0  0  0  0  0  0  0  0  0  0  0
    2.4215    1.6984    2.6308 H   0  0  0  0  0  0  0  0  0  0  0  0
    0.9508    0.7311    2.5845 H   0  0  0  0  0  0  0  0  0  0  0  0
    1.7651    4.8279   -0.6003 H   0  0  0  0  0  0  0  0  0  0  0  0
    2.0573    3.3922   -1.5887 H   0  0  0  0  0  0  0  0  0  0  0  0
   -2.0266    2.9473   -2.1220 H   0  0  0  0  0  0  0  0  0  0  0  0
   -3.1975    0.8408   -1.7768 H   0  0  0  0  0  0  0  0  0  0  0  0
   -4.2123   -2.4781   -0.7018 H   0  0  0  0  0  0  0  0  0  0  0  0
   -3.5389   -1.4716   -1.9841 H   0  0  0  0  0  0  0  0  0  0  0  0
   -4.5152   -0.7412   -0.6930 H   0  0  0  0  0  0  0  0  0  0  0  0
   -2.0299   -1.3697    2.0934 H   0  0  0  0  0  0  0  0  0  0  0  0
   -3.4227   -2.3370    1.6163 H   0  0  0  0  0  0  0  0  0  0  0  0
   -3.5585   -0.5736    1.7032 H   0  0  0  0  0  0  0  0  0  0  0  0
   -1.1696   -2.3777   -1.4464 H   0  0  0  0  0  0  0  0  0  0  0  0
   -0.6232   -2.4464    0.2326 H   0  0  0  0  0  0  0  0  0  0  0  0
   -1.9981   -3.4202   -0.2790 H   0  0  0  0  0  0  0  0  0  0  0  0
   -0.2064   -0.3507    1.0806 H   0  0  0  0  0  0  0  0  0  0  0  0
  1  2  1  0
  2  3  1  0
  3  4  1  0
  4  5  2  0
  4  6  1  0
  6  7  1  0
  7  8  1  0
  8  9  2  0
  8 10  1  0
 10 11  1  0
 11 12  1  0
 12 13  2  0
 13 14  1  0
 14 15  2  0
 15 16  1  0
 16 17  1  0
 16 18  1  0
 16 19  1  0
 15 20  1  0
 20 21  2  0
 21  7  1  0
 21 12  1  0
  1 22  1  0
  1 23  1  0
  1 24  1  0
  2 25  1  0
  2 26  1  0
  6 27  1  0
  6 28  1  0
 10 29  1  0
 10 30  1  0
 13 31  1  0
 14 32  1  0
 17 33  1  0
 17 34  1  0
 17 35  1  0
 18 36  1  0
 18 37  1  0
 18 38  1  0
 19 39  1  0
 19 40  1  0
 19 41  1  0
 20 42  1  0
M  END
