
     RDKit          3D

 38 40  0  0  0  0  0  0  0  0999 V2000
    5.8496   -0.5597   -0.7727 C   0  0  0  0  0  0  0  0  0  0  0  0
    5.0917   -0.2553    0.5057 C   0  0  0  0  0  0  0  0  0  0  0  0
    3.7191    0.0448    0.2077 O   0  0  0  0  0  0  0  0  0  0  0  0
    2.8667   -1.0214    0.1240 C   0  0  0  0  0  0  0  0  0  0  0  0
    3.2624   -2.1717    0.2834 O   0  0  0  0  0  0  0  0  0  0  0  0
    1.5630   -0.6623   -0.1582 N   0  0  0  0  0  0  0  0  0  0  0  0
    0.4952   -1.5998   -0.2234 C   0  0  0  0  0  0  0  0  0  0  0  0
    0.5391   -2.8162   -0.1149 O   0  0  0  0  0  0  0  0  0  0  0  0
   -0.6838   -0.8599   -0.4768 N   0  0  0  0  0  0  0  0  0  0  0  0
   -1.9790   -1.4700   -0.6559 C   0  0  0  0  0  0  0  0  0  0  0  0
   -3.0892   -0.9196    0.2129 C   0  0  0  0  0  0  0  0  0  0  0  0
   -4.2421   -0.4040   -0.4126 C   0  0  0  0  0  0  0  0  0  0  0  0
   -5.3028    0.1083    0.3371 C   0  0  0  0  0  0  0  0  0  0  0  0
   -5.2375    0.1045    1.7262 C   0  0  0  0  0  0  0  0  0  0  0  0
   -4.1149   -0.4200    2.3644 C   0  0  0  0  0  0  0  0  0  0  0  0
   -3.0496   -0.9354    1.6167 C   0  0  0  0  0  0  0  0  0  0  0  0
   -1.7212   -1.5981    2.4979 Cl  0  0  0  0  0  0  0  0  0  0  0  0
   -0.3500    0.4894   -0.6268 C   0  0  0  0  0  0  0  0  0  0  0  0
   -1.1551    1.5701   -0.9351 C   0  0  0  0  0  0  0  0  0  0  0  0
   -0.5530    2.8268   -1.0173 C   0  0  0  0  0  0  0  0  0  0  0  0
    0.8254    2.9749   -0.7985 C   0  0  0  0  0  0  0  0  0  0  0  0
    1.6283    1.8684   -0.4970 C   0  0  0  0  0  0  0  0  0  0  0  0
    1.0272    0.6232   -0.4144 C   0  0  0  0  0  0  0  0  0  0  0  0
    5.7569    0.2703   -1.4810 H   0  0  0  0  0  0  0  0  0  0  0  0
    6.9097   -0.7289   -0.5641 H   0  0  0  0  0  0  0  0  0  0  0  0
    5.4450   -1.4476   -1.2686 H   0  0  0  0  0  0  0  0  0  0  0  0
    5.1759   -1.0728    1.2307 H   0  0  0  0  0  0  0  0  0  0  0  0
    5.5156    0.6362    0.9794 H   0  0  0  0  0  0  0  0  0  0  0  0
   -2.2304   -1.3576   -1.7182 H   0  0  0  0  0  0  0  0  0  0  0  0
   -1.9102   -2.5502   -0.4792 H   0  0  0  0  0  0  0  0  0  0  0  0
   -4.3216   -0.3959   -1.4986 H   0  0  0  0  0  0  0  0  0  0  0  0
   -6.1820    0.5060   -0.1645 H   0  0  0  0  0  0  0  0  0  0  0  0
   -6.0623    0.4998    2.3137 H   0  0  0  0  0  0  0  0  0  0  0  0
   -4.0769   -0.4323    3.4513 H   0  0  0  0  0  0  0  0  0  0  0  0
   -2.2184    1.4708   -1.1088 H   0  0  0  0  0  0  0  0  0  0  0  0
   -1.1568    3.7009   -1.2523 H   0  0  0  0  0  0  0  0  0  0  0  0
    1.2762    3.9632   -0.8675 H   0  0  0  0  0  0  0  0  0  0  0  0
    2.6895    2.0214   -0.3446 H   0  0  0  0  0  0  0  0  0  0  0  0
  1  2  1  0
  2  3  1  0
  3  4  1  0
  4  5  2  0
  4  6  1  0
  6  7  1  0
  7  8  2  0
  7  9  1  0
  9 10  1  0
 10 11  1  0
 11 12  2  0
 12 13  1  0
 13 14  2  0
 14 15  1  0
 15 16  2  0
 16 17  1  0
  9 18  1  0
 18 19  2  0
 19 20  1  0
 20 21  2  0
 21 22  1  0
 22 23  2  0
 23  6  1  0
 16 11  1  0
 23 18  1  0
  1 24  1  0
  1 25  1  0
  1 26  1  0
  2 27  1  0
  2 28  1  0
 10 29  1  0
 10 30  1  0
 12 31  1  0
 13 32  1  0
 14 33  1  0
 15 34  1  0
 19 35  1  0
 20 36  1  0
 21 37  1  0
 22 38  1  0
M  END
