
     RDKit          3D

 40 41  0  0  0  0  0  0  0  0999 V2000
    5.8968   -1.2032   -1.6814 C   0  0  0  0  0  0  0  0  0  0  0  0
    4.8788   -1.8697   -0.7755 C   0  0  0  0  0  0  0  0  0  0  0  0
    3.5733   -1.3244   -1.0117 O   0  0  0  0  0  0  0  0  0  0  0  0
    3.2592   -0.2021   -0.3099 C   0  0  0  0  0  0  0  0  0  0  0  0
    4.0181    0.3506    0.4770 O   0  0  0  0  0  0  0  0  0  0  0  0
    1.9866    0.2454   -0.5935 N   0  0  0  0  0  0  0  0  0  0  0  0
    1.1257   -0.4096   -1.5851 C   0  0  0  0  0  0  0  0  0  0  0  0
   -0.1853    0.3549   -1.8070 C   0  0  0  0  0  0  0  0  0  0  0  0
   -0.8465    0.6345   -0.5296 N   0  0  0  0  0  0  0  0  0  0  0  0
   -1.7802   -0.3051   -0.0995 C   0  0  0  0  0  0  0  0  0  0  0  0
   -1.9384   -1.3751   -0.6874 O   0  0  0  0  0  0  0  0  0  0  0  0
   -2.5274    0.0344    1.0252 N   0  0  0  0  0  0  0  0  0  0  0  0
   -3.0867    1.3891    1.1365 C   0  0  0  0  0  0  0  0  0  0  0  0
   -4.3286    1.4375    2.0368 C   0  0  0  0  0  0  0  0  0  0  0  0
   -5.3528    0.5245    1.6216 O   0  0  0  0  0  0  0  0  0  0  0  0
   -4.8512   -0.7510    1.1832 C   0  0  0  0  0  0  0  0  0  0  0  0
   -3.3953   -1.0070    1.5828 C   0  0  0  0  0  0  0  0  0  0  0  0
   -0.0012    1.3294    0.4570 C   0  0  0  0  0  0  0  0  0  0  0  0
    1.4756    1.4599    0.0351 C   0  0  0  0  0  0  0  0  0  0  0  0
    5.9612   -0.1295   -1.4790 H   0  0  0  0  0  0  0  0  0  0  0  0
    6.8877   -1.6449   -1.5423 H   0  0  0  0  0  0  0  0  0  0  0  0
    5.6060   -1.3133   -2.7315 H   0  0  0  0  0  0  0  0  0  0  0  0
    4.8251   -2.9383   -1.0076 H   0  0  0  0  0  0  0  0  0  0  0  0
    5.1624   -1.7842    0.2798 H   0  0  0  0  0  0  0  0  0  0  0  0
    0.9231   -1.4231   -1.2195 H   0  0  0  0  0  0  0  0  0  0  0  0
    1.6768   -0.4962   -2.5283 H   0  0  0  0  0  0  0  0  0  0  0  0
   -0.8472   -0.2055   -2.4762 H   0  0  0  0  0  0  0  0  0  0  0  0
    0.0112    1.3218   -2.2859 H   0  0  0  0  0  0  0  0  0  0  0  0
   -3.3547    1.7257    0.1275 H   0  0  0  0  0  0  0  0  0  0  0  0
   -2.3267    2.0600    1.5419 H   0  0  0  0  0  0  0  0  0  0  0  0
   -4.7586    2.4446    2.0294 H   0  0  0  0  0  0  0  0  0  0  0  0
   -4.0660    1.2071    3.0760 H   0  0  0  0  0  0  0  0  0  0  0  0
   -4.9611   -0.7836    0.0937 H   0  0  0  0  0  0  0  0  0  0  0  0
   -5.5032   -1.5222    1.6051 H   0  0  0  0  0  0  0  0  0  0  0  0
   -3.0747   -2.0059    1.2703 H   0  0  0  0  0  0  0  0  0  0  0  0
   -3.2857   -0.9579    2.6725 H   0  0  0  0  0  0  0  0  0  0  0  0
   -0.0520    0.7907    1.4108 H   0  0  0  0  0  0  0  0  0  0  0  0
   -0.4088    2.3341    0.6035 H   0  0  0  0  0  0  0  0  0  0  0  0
    1.5795    2.2604   -0.7077 H   0  0  0  0  0  0  0  0  0  0  0  0
    2.0849    1.7471    0.8982 H   0  0  0  0  0  0  0  0  0  0  0  0
  1  2  1  0
  2  3  1  0
  3  4  1  0
  4  5  2  0
  4  6  1  0
  6  7  1  0
  7  8  1  0
  8  9  1  0
  9 10  1  0
 10 11  2  0
 10 12  1  0
 12 13  1  0
 13 14  1  0
 14 15  1  0
 15 16  1  0
 16 17  1  0
  9 18  1  0
 18 19  1  0
 19  6  1  0
 17 12  1  0
  1 20  1  0
  1 21  1  0
  1 22  1  0
  2 23  1  0
  2 24  1  0
  7 25  1  0
  7 26  1  0
  8 27  1  0
  8 28  1  0
 13 29  1  0
 13 30  1  0
 14 31  1  0
 14 32  1  0
 16 33  1  0
 16 34  1  0
 17 35  1  0
 17 36  1  0
 18 37  1  0
 18 38  1  0
 19 39  1  0
 19 40  1  0
M  END
