
     RDKit          3D

 41 43  0  0  0  0  0  0  0  0999 V2000
    7.7557    1.2921    0.3527 C   0  0  0  0  0  0  0  0  0  0  0  0
    6.7952    0.1584    0.0504 C   0  0  0  0  0  0  0  0  0  0  0  0
    5.4608    0.6796    0.0944 O   0  0  0  0  0  0  0  0  0  0  0  0
    4.4912   -0.2405   -0.1608 C   0  0  0  0  0  0  0  0  0  0  0  0
    4.7135   -1.4151   -0.4089 O   0  0  0  0  0  0  0  0  0  0  0  0
    3.2829    0.3916   -0.0856 N   0  0  0  0  0  0  0  0  0  0  0  0
    2.0003   -0.1481   -0.2732 C   0  0  0  0  0  0  0  0  0  0  0  0
    1.7576   -1.4886   -0.5811 C   0  0  0  0  0  0  0  0  0  0  0  0
    0.4463   -1.9527   -0.7521 C   0  0  0  0  0  0  0  0  0  0  0  0
   -0.6400   -1.0889   -0.6205 C   0  0  0  0  0  0  0  0  0  0  0  0
   -1.9333   -1.5933   -0.7904 N   0  0  0  0  0  0  0  0  0  0  0  0
   -2.9316   -0.7760   -0.6903 C   0  0  0  0  0  0  0  0  0  0  0  0
   -2.7980    0.5758   -0.4248 N   0  0  0  0  0  0  0  0  0  0  0  0
   -1.5517    1.1427   -0.1806 C   0  0  0  0  0  0  0  0  0  0  0  0
   -1.3728    2.3148    0.1410 O   0  0  0  0  0  0  0  0  0  0  0  0
   -0.3924    0.2447   -0.3155 C   0  0  0  0  0  0  0  0  0  0  0  0
    0.9139    0.7213   -0.1399 C   0  0  0  0  0  0  0  0  0  0  0  0
   -3.9759    1.4254   -0.2892 C   0  0  0  0  0  0  0  0  0  0  0  0
   -4.7190    1.1856    1.0246 C   0  0  0  0  0  0  0  0  0  0  0  0
   -4.7887   -0.2722    1.4818 C   0  0  0  0  0  0  0  0  0  0  0  0
   -5.1943   -1.2817    0.4084 C   0  0  0  0  0  0  0  0  0  0  0  0
   -4.3358   -1.3309   -0.8583 C   0  0  0  0  0  0  0  0  0  0  0  0
    7.6397    2.1005   -0.3769 H   0  0  0  0  0  0  0  0  0  0  0  0
    8.7915    0.9423    0.3308 H   0  0  0  0  0  0  0  0  0  0  0  0
    7.5479    1.7209    1.3386 H   0  0  0  0  0  0  0  0  0  0  0  0
    7.0023   -0.2451   -0.9471 H   0  0  0  0  0  0  0  0  0  0  0  0
    6.9089   -0.6319    0.8009 H   0  0  0  0  0  0  0  0  0  0  0  0
    3.3606    1.3749    0.1361 H   0  0  0  0  0  0  0  0  0  0  0  0
    2.5659   -2.2051   -0.6950 H   0  0  0  0  0  0  0  0  0  0  0  0
    0.2730   -2.9998   -0.9890 H   0  0  0  0  0  0  0  0  0  0  0  0
    1.0666    1.7710    0.0997 H   0  0  0  0  0  0  0  0  0  0  0  0
   -4.6462    1.2415   -1.1351 H   0  0  0  0  0  0  0  0  0  0  0  0
   -3.6996    2.4838   -0.3576 H   0  0  0  0  0  0  0  0  0  0  0  0
   -4.2282    1.7611    1.8198 H   0  0  0  0  0  0  0  0  0  0  0  0
   -5.7330    1.5934    0.9333 H   0  0  0  0  0  0  0  0  0  0  0  0
   -5.4985   -0.3404    2.3157 H   0  0  0  0  0  0  0  0  0  0  0  0
   -3.8177   -0.5658    1.9014 H   0  0  0  0  0  0  0  0  0  0  0  0
   -6.2382   -1.1082    0.1190 H   0  0  0  0  0  0  0  0  0  0  0  0
   -5.1774   -2.2775    0.8704 H   0  0  0  0  0  0  0  0  0  0  0  0
   -4.8316   -0.7891   -1.6715 H   0  0  0  0  0  0  0  0  0  0  0  0
   -4.2701   -2.3704   -1.2041 H   0  0  0  0  0  0  0  0  0  0  0  0
  1  2  1  0
  2  3  1  0
  3  4  1  0
  4  5  2  0
  4  6  1  0
  6  7  1  0
  7  8  2  0
  8  9  1  0
  9 10  2  0
 10 11  1  0
 11 12  2  0
 12 13  1  0
 13 14  1  0
 14 15  2  0
 14 16  1  0
 16 17  2  0
 13 18  1  0
 18 19  1  0
 19 20  1  0
 20 21  1  0
 21 22  1  0
 17  7  1  0
 16 10  1  0
 22 12  1  0
  1 23  1  0
  1 24  1  0
  1 25  1  0
  2 26  1  0
  2 27  1  0
  6 28  1  0
  8 29  1  0
  9 30  1  0
 17 31  1  0
 18 32  1  0
 18 33  1  0
 19 34  1  0
 19 35  1  0
 20 36  1  0
 20 37  1  0
 21 38  1  0
 21 39  1  0
 22 40  1  0
 22 41  1  0
M  END
