
     RDKit          3D

 31 35  0  0  0  0  0  0  0  0999 V2000
    5.1651   -0.0861   -1.0246 Si  0  0  0  0  0  4  0  0  0  0  0  0
    6.3092   -0.1540    0.4574 C   0  0  0  0  0  0  0  0  0  0  0  0
    5.6095   -0.1717    1.6051 C   0  0  0  0  0  0  0  0  0  0  0  0
    4.1605   -0.1356    1.4548 C   0  0  0  0  0  0  0  0  0  0  0  0
    3.6958   -0.0888    0.1857 C   0  0  0  0  0  0  0  0  0  0  0  0
    2.3278   -0.0467   -0.2303 C   0  0  0  0  0  0  0  0  0  0  0  0
    1.8077    0.0029   -1.5324 C   0  0  0  0  0  0  0  0  0  0  0  0
    0.3883    0.0338   -1.5308 C   0  0  0  0  0  0  0  0  0  0  0  0
   -1.0156    0.0944   -2.5523 S   0  0  0  0  0  0  0  0  0  0  0  0
   -2.1791    0.0825   -1.2863 C   0  0  0  0  0  0  0  0  0  0  0  0
   -3.5410    0.1002   -0.8795 C   0  0  0  0  0  0  0  0  0  0  0  0
   -4.7754    0.1468   -1.5494 C   0  0  0  0  0  0  0  0  0  0  0  0
   -5.9540    0.1503   -0.7963 C   0  0  0  0  0  0  0  0  0  0  0  0
   -5.9112    0.1084    0.5964 C   0  0  0  0  0  0  0  0  0  0  0  0
   -4.6939    0.0617    1.2849 C   0  0  0  0  0  0  0  0  0  0  0  0
   -3.5120    0.0580    0.5329 C   0  0  0  0  0  0  0  0  0  0  0  0
   -2.1971    0.0165    0.9704 N   0  0  0  0  0  0  0  0  0  0  0  0
   -1.4453    0.0330   -0.1461 C   0  0  0  0  0  0  0  0  0  0  0  0
   -0.0872    0.0066   -0.2567 C   0  0  0  0  0  0  0  0  0  0  0  0
    1.0378   -0.0543    0.9799 S   0  0  0  0  0  0  0  0  0  0  0  0
    5.2304   -1.3205   -1.8468 H   0  0  0  0  0  0  0  0  0  0  0  0
    5.2854    1.1897   -1.7743 H   0  0  0  0  0  0  0  0  0  0  0  0
    7.3821   -0.1744    0.3503 H   0  0  0  0  0  0  0  0  0  0  0  0
    6.0639   -0.2101    2.5879 H   0  0  0  0  0  0  0  0  0  0  0  0
    3.5459   -0.1478    2.3467 H   0  0  0  0  0  0  0  0  0  0  0  0
    2.3976    0.0168   -2.4394 H   0  0  0  0  0  0  0  0  0  0  0  0
   -4.8152    0.1796   -2.6340 H   0  0  0  0  0  0  0  0  0  0  0  0
   -6.9143    0.1862   -1.3052 H   0  0  0  0  0  0  0  0  0  0  0  0
   -6.8417    0.1121    1.1602 H   0  0  0  0  0  0  0  0  0  0  0  0
   -4.6740    0.0293    2.3698 H   0  0  0  0  0  0  0  0  0  0  0  0
   -1.8499   -0.0190    1.9203 H   0  0  0  0  0  0  0  0  0  0  0  0
  1  2  1  0
  2  3  2  0
  3  4  1  0
  4  5  2  0
  5  6  1  0
  6  7  2  0
  7  8  1  0
  8  9  1  0
  9 10  1  0
 10 11  1  0
 11 12  2  0
 12 13  1  0
 13 14  2  0
 14 15  1  0
 15 16  2  0
 16 17  1  0
 17 18  1  0
 18 19  1  0
 19 20  1  0
  5  1  1  0
 20  6  1  0
 19  8  2  0
 18 10  2  0
 16 11  1  0
  1 21  1  0
  1 22  1  0
  2 23  1  0
  3 24  1  0
  4 25  1  0
  7 26  1  0
 12 27  1  0
 13 28  1  0
 14 29  1  0
 15 30  1  0
 17 31  1  0
M  END
