
     RDKit          3D

 41 42  0  0  0  0  0  0  0  0999 V2000
   -5.0209   -1.9543    3.3426 C   0  0  0  0  0  0  0  0  0  0  0  0
   -3.5197   -2.1573    3.4280 C   0  0  0  0  0  0  0  0  0  0  0  0
   -3.0043   -2.5847    2.1609 O   0  0  0  0  0  0  0  0  0  0  0  0
   -2.6817   -1.5902    1.2904 C   0  0  0  0  0  0  0  0  0  0  0  0
   -2.8114   -0.3930    1.5037 O   0  0  0  0  0  0  0  0  0  0  0  0
   -2.1959   -2.1818    0.1365 O   0  0  0  0  0  0  0  0  0  0  0  0
   -1.8158   -1.2510   -0.8344 C   0  0  0  0  0  0  0  0  0  0  0  0
   -2.7582   -0.8308   -1.7728 C   0  0  0  0  0  0  0  0  0  0  0  0
   -2.3936    0.0710   -2.7749 C   0  0  0  0  0  0  0  0  0  0  0  0
   -1.0643    0.4953   -2.7839 C   0  0  0  0  0  0  0  0  0  0  0  0
   -0.5344    1.3703   -3.6767 O   0  0  0  0  0  0  0  0  0  0  0  0
    0.7788    1.5282   -3.3568 C   0  0  0  0  0  0  0  0  0  0  0  0
    1.5448    2.4581   -4.2163 C   0  0  0  0  0  0  0  0  0  0  0  0
    1.1152    0.7492   -2.2588 C   0  0  0  0  0  0  0  0  0  0  0  0
    2.4416    0.6882   -1.6710 C   0  0  0  0  0  0  0  0  0  0  0  0
    3.3730    1.4014   -2.0281 O   0  0  0  0  0  0  0  0  0  0  0  0
    2.5404   -0.2480   -0.6865 O   0  0  0  0  0  0  0  0  0  0  0  0
    3.8192   -0.3379   -0.0318 C   0  0  0  0  0  0  0  0  0  0  0  0
    3.9786    0.7617    1.0171 C   0  0  0  0  0  0  0  0  0  0  0  0
    3.0427    0.5322    2.0757 O   0  0  0  0  0  0  0  0  0  0  0  0
    3.1007    1.5582    3.0578 C   0  0  0  0  0  0  0  0  0  0  0  0
   -0.0939    0.0777   -1.8781 C   0  0  0  0  0  0  0  0  0  0  0  0
   -0.4791   -0.8309   -0.8711 C   0  0  0  0  0  0  0  0  0  0  0  0
   -5.2709   -1.1632    2.6286 H   0  0  0  0  0  0  0  0  0  0  0  0
   -5.4320   -1.6853    4.3197 H   0  0  0  0  0  0  0  0  0  0  0  0
   -5.5129   -2.8673    2.9915 H   0  0  0  0  0  0  0  0  0  0  0  0
   -3.2974   -2.9517    4.1481 H   0  0  0  0  0  0  0  0  0  0  0  0
   -3.0119   -1.2528    3.7823 H   0  0  0  0  0  0  0  0  0  0  0  0
   -3.7802   -1.1968   -1.7244 H   0  0  0  0  0  0  0  0  0  0  0  0
   -3.1018    0.4287   -3.5124 H   0  0  0  0  0  0  0  0  0  0  0  0
    1.9222    3.2999   -3.6278 H   0  0  0  0  0  0  0  0  0  0  0  0
    2.3949    1.9441   -4.6752 H   0  0  0  0  0  0  0  0  0  0  0  0
    0.9213    2.8614   -5.0206 H   0  0  0  0  0  0  0  0  0  0  0  0
    4.6283   -0.3051   -0.7704 H   0  0  0  0  0  0  0  0  0  0  0  0
    3.8495   -1.3211    0.4495 H   0  0  0  0  0  0  0  0  0  0  0  0
    4.9937    0.7327    1.4277 H   0  0  0  0  0  0  0  0  0  0  0  0
    3.7904    1.7486    0.5818 H   0  0  0  0  0  0  0  0  0  0  0  0
    2.3768    1.3245    3.8430 H   0  0  0  0  0  0  0  0  0  0  0  0
    2.8384    2.5249    2.6174 H   0  0  0  0  0  0  0  0  0  0  0  0
    4.0986    1.6051    3.5043 H   0  0  0  0  0  0  0  0  0  0  0  0
    0.2308   -1.1935   -0.1344 H   0  0  0  0  0  0  0  0  0  0  0  0
  1  2  1  0
  2  3  1  0
  3  4  1  0
  4  5  2  0
  4  6  1  0
  6  7  1  0
  7  8  2  0
  8  9  1  0
  9 10  2  0
 10 11  1  0
 11 12  1  0
 12 13  1  0
 12 14  2  0
 14 15  1  0
 15 16  2  0
 15 17  1  0
 17 18  1  0
 18 19  1  0
 19 20  1  0
 20 21  1  0
 14 22  1  0
 22 23  2  0
 23  7  1  0
 22 10  1  0
  1 24  1  0
  1 25  1  0
  1 26  1  0
  2 27  1  0
  2 28  1  0
  8 29  1  0
  9 30  1  0
 13 31  1  0
 13 32  1  0
 13 33  1  0
 18 34  1  0
 18 35  1  0
 19 36  1  0
 19 37  1  0
 21 38  1  0
 21 39  1  0
 21 40  1  0
 23 41  1  0
M  END
