
     RDKit          3D

 31 32  0  0  0  0  0  0  0  0999 V2000
    5.3096    1.2019   -0.4272 C   0  0  0  0  0  0  0  0  0  0  0  0
    3.8056    0.9956   -0.4073 C   0  0  0  0  0  0  0  0  0  0  0  0
    3.5266   -0.2574   -1.0384 O   0  0  0  0  0  0  0  0  0  0  0  0
    2.3804   -0.8899   -0.5629 C   0  0  0  0  0  0  0  0  0  0  0  0
    2.4324   -2.1746   -0.2102 C   0  0  0  0  0  0  0  0  0  0  0  0
    3.8505   -3.1392   -0.2502 Cl  0  0  0  0  0  0  0  0  0  0  0  0
    1.2051   -2.7979    0.2717 C   0  0  0  0  0  0  0  0  0  0  0  0
    0.0611   -2.2161    0.3872 N   0  0  0  0  0  0  0  0  0  0  0  0
   -0.0352   -0.8872    0.0089 N   0  0  0  0  0  0  0  0  0  0  0  0
   -1.3655   -0.3454    0.1793 C   0  0  0  0  0  0  0  0  0  0  0  0
   -1.6977    0.9882   -0.0964 C   0  0  0  0  0  0  0  0  0  0  0  0
   -3.0019    1.4749    0.0846 C   0  0  0  0  0  0  0  0  0  0  0  0
   -4.0212    0.6387    0.5405 C   0  0  0  0  0  0  0  0  0  0  0  0
   -5.4048    1.1699    0.7637 C   0  0  0  0  0  0  0  0  0  0  0  0
   -3.7098   -0.6865    0.8387 C   0  0  0  0  0  0  0  0  0  0  0  0
   -2.4063   -1.1675    0.6562 C   0  0  0  0  0  0  0  0  0  0  0  0
    1.0573   -0.1644   -0.5086 C   0  0  0  0  0  0  0  0  0  0  0  0
    1.0263    0.9961   -0.9181 O   0  0  0  0  0  0  0  0  0  0  0  0
    5.8159    0.3940    0.1113 H   0  0  0  0  0  0  0  0  0  0  0  0
    5.5784    2.1565    0.0337 H   0  0  0  0  0  0  0  0  0  0  0  0
    5.6878    1.1863   -1.4547 H   0  0  0  0  0  0  0  0  0  0  0  0
    3.3269    1.8032   -0.9698 H   0  0  0  0  0  0  0  0  0  0  0  0
    3.4545    1.0099    0.6318 H   0  0  0  0  0  0  0  0  0  0  0  0
    1.2806   -3.8579    0.5662 H   0  0  0  0  0  0  0  0  0  0  0  0
   -0.9675    1.7054   -0.4536 H   0  0  0  0  0  0  0  0  0  0  0  0
   -3.2077    2.5200   -0.1381 H   0  0  0  0  0  0  0  0  0  0  0  0
   -5.6341    1.9726    0.0549 H   0  0  0  0  0  0  0  0  0  0  0  0
   -5.4963    1.5602    1.7820 H   0  0  0  0  0  0  0  0  0  0  0  0
   -6.1534    0.3842    0.6172 H   0  0  0  0  0  0  0  0  0  0  0  0
   -4.4749   -1.3620    1.2143 H   0  0  0  0  0  0  0  0  0  0  0  0
   -2.2228   -2.2117    0.8981 H   0  0  0  0  0  0  0  0  0  0  0  0
  1  2  1  0
  2  3  1  0
  3  4  1  0
  4  5  2  0
  5  6  1  0
  5  7  1  0
  7  8  2  0
  8  9  1  0
  9 10  1  0
 10 11  2  0
 11 12  1  0
 12 13  2  0
 13 14  1  0
 13 15  1  0
 15 16  2  0
  9 17  1  0
 17 18  2  0
 17  4  1  0
 16 10  1  0
  1 19  1  0
  1 20  1  0
  1 21  1  0
  2 22  1  0
  2 23  1  0
  7 24  1  0
 11 25  1  0
 12 26  1  0
 14 27  1  0
 14 28  1  0
 14 29  1  0
 15 30  1  0
 16 31  1  0
M  END
