
     RDKit          3D

 33 35  0  0  0  0  0  0  0  0999 V2000
    5.6452    0.7573   -0.0329 C   0  0  0  0  0  0  0  0  0  0  0  0
    5.1010   -0.3123   -0.9638 C   0  0  0  0  0  0  0  0  0  0  0  0
    4.1737   -1.1539   -0.2811 O   0  0  0  0  0  0  0  0  0  0  0  0
    2.8523   -0.8129   -0.2738 C   0  0  0  0  0  0  0  0  0  0  0  0
    2.2956    0.3650   -0.7588 C   0  0  0  0  0  0  0  0  0  0  0  0
    0.9106    0.5811   -0.6776 C   0  0  0  0  0  0  0  0  0  0  0  0
    0.0507   -0.3714   -0.1087 C   0  0  0  0  0  0  0  0  0  0  0  0
   -1.3479   -0.1343   -0.0366 N   0  0  0  0  0  0  0  0  0  0  0  0
   -1.9579    1.0916   -0.5412 C   0  0  0  0  0  0  0  0  0  0  0  0
   -3.4174    0.8972   -0.2555 C   0  0  0  0  0  0  0  0  0  0  0  0
   -4.4022    1.7708   -0.5423 N   0  0  0  0  0  0  0  0  0  0  0  0
   -5.6457    1.3621   -0.1828 C   0  0  0  0  0  0  0  0  0  0  0  0
   -5.9281    0.1406    0.4376 C   0  0  0  0  0  0  0  0  0  0  0  0
   -4.8791   -0.7346    0.7166 C   0  0  0  0  0  0  0  0  0  0  0  0
   -3.6131   -0.3251    0.3538 C   0  0  0  0  0  0  0  0  0  0  0  0
   -2.3176   -0.9899    0.4996 C   0  0  0  0  0  0  0  0  0  0  0  0
   -2.2232   -2.0902    1.0117 O   0  0  0  0  0  0  0  0  0  0  0  0
    0.6268   -1.5477    0.3790 C   0  0  0  0  0  0  0  0  0  0  0  0
    2.0090   -1.7631    0.2985 C   0  0  0  0  0  0  0  0  0  0  0  0
    6.4089    1.3562   -0.5371 H   0  0  0  0  0  0  0  0  0  0  0  0
    4.8527    1.4259    0.3159 H   0  0  0  0  0  0  0  0  0  0  0  0
    6.0884    0.2999    0.8580 H   0  0  0  0  0  0  0  0  0  0  0  0
    5.9326   -0.9558   -1.2731 H   0  0  0  0  0  0  0  0  0  0  0  0
    4.6879    0.1074   -1.8876 H   0  0  0  0  0  0  0  0  0  0  0  0
    2.9038    1.1468   -1.2003 H   0  0  0  0  0  0  0  0  0  0  0  0
    0.5351    1.5203   -1.0728 H   0  0  0  0  0  0  0  0  0  0  0  0
   -1.5726    1.9566    0.0073 H   0  0  0  0  0  0  0  0  0  0  0  0
   -1.7875    1.1804   -1.6185 H   0  0  0  0  0  0  0  0  0  0  0  0
   -6.4447    2.0634   -0.4118 H   0  0  0  0  0  0  0  0  0  0  0  0
   -6.9500   -0.1180    0.6962 H   0  0  0  0  0  0  0  0  0  0  0  0
   -5.0430   -1.6935    1.1959 H   0  0  0  0  0  0  0  0  0  0  0  0
    0.0296   -2.3311    0.8353 H   0  0  0  0  0  0  0  0  0  0  0  0
    2.4261   -2.6888    0.6887 H   0  0  0  0  0  0  0  0  0  0  0  0
  1  2  1  0
  2  3  1  0
  3  4  1  0
  4  5  2  0
  5  6  1  0
  6  7  2  0
  7  8  1  0
  8  9  1  0
  9 10  1  0
 10 11  2  0
 11 12  1  0
 12 13  2  0
 13 14  1  0
 14 15  2  0
 15 16  1  0
 16 17  2  0
  7 18  1  0
 18 19  2  0
 19  4  1  0
 16  8  1  0
 15 10  1  0
  1 20  1  0
  1 21  1  0
  1 22  1  0
  2 23  1  0
  2 24  1  0
  5 25  1  0
  6 26  1  0
  9 27  1  0
  9 28  1  0
 12 29  1  0
 13 30  1  0
 14 31  1  0
 18 32  1  0
 19 33  1  0
M  END
