
     RDKit          3D

 46 52  0  0  0  0  0  0  0  0999 V2000
    5.7857   -0.9714   -0.8240 Si  0  0  0  0  0  4  0  0  0  0  0  0
    7.2155    0.0356   -0.1231 C   0  0  0  0  0  0  0  0  0  0  0  0
    6.7764    0.9783    0.7307 C   0  0  0  0  0  0  0  0  0  0  0  0
    5.3350    1.0175    0.9246 C   0  0  0  0  0  0  0  0  0  0  0  0
    4.6341    0.0995    0.2265 C   0  0  0  0  0  0  0  0  0  0  0  0
    3.1878   -0.0764    0.2269 C   0  0  0  0  0  0  0  0  0  0  0  0
    2.5987   -1.2432    0.7016 C   0  0  0  0  0  0  0  0  0  0  0  0
    1.2003   -1.3980    0.6981 C   0  0  0  0  0  0  0  0  0  0  0  0
    0.2971   -0.4235    0.2072 C   0  0  0  0  0  0  0  0  0  0  0  0
    0.9395    0.7836   -0.1940 C   0  0  0  0  0  0  0  0  0  0  0  0
    2.3515    0.9493   -0.2027 C   0  0  0  0  0  0  0  0  0  0  0  0
    0.0168    1.7871   -0.5499 C   0  0  0  0  0  0  0  0  0  0  0  0
    0.3467    3.0565   -0.9683 C   0  0  0  0  0  0  0  0  0  0  0  0
   -0.8245    3.7261   -1.2022 N   0  0  0  0  0  0  0  0  0  0  0  0
   -1.8947    2.9013   -0.9361 C   0  0  0  0  0  0  0  0  0  0  0  0
   -1.4127    1.6808   -0.5141 C   0  0  0  0  0  0  0  0  0  0  0  0
   -2.1588    0.5192   -0.1464 C   0  0  0  0  0  0  0  0  0  0  0  0
   -3.6159    0.3712   -0.0666 C   0  0  0  0  0  0  0  0  0  0  0  0
   -5.0218    1.6284   -0.2921 Si  0  0  0  0  0  4  0  0  0  0  0  0
   -6.2939    0.2949    0.0443 C   0  0  0  0  0  0  0  0  0  0  0  0
   -5.7328   -0.9007    0.2891 C   0  0  0  0  0  0  0  0  0  0  0  0
   -4.2744   -0.8552    0.2360 C   0  0  0  0  0  0  0  0  0  0  0  0
   -3.3881   -1.9016    0.4050 C   0  0  0  0  0  0  0  0  0  0  0  0
   -3.7302   -3.2154    0.6115 C   0  0  0  0  0  0  0  0  0  0  0  0
   -2.5615   -3.9302    0.6323 N   0  0  0  0  0  0  0  0  0  0  0  0
   -1.4899   -3.0859    0.4313 C   0  0  0  0  0  0  0  0  0  0  0  0
   -1.9541   -1.7888    0.3578 C   0  0  0  0  0  0  0  0  0  0  0  0
   -1.1996   -0.5756    0.1495 C   0  0  0  0  0  0  0  0  0  0  0  0
    5.8318   -2.3848   -0.3697 H   0  0  0  0  0  0  0  0  0  0  0  0
    5.6254   -0.7524   -2.2834 H   0  0  0  0  0  0  0  0  0  0  0  0
    8.2371   -0.1624   -0.4056 H   0  0  0  0  0  0  0  0  0  0  0  0
    7.4260    1.6713    1.2511 H   0  0  0  0  0  0  0  0  0  0  0  0
    4.8877    1.7423    1.5946 H   0  0  0  0  0  0  0  0  0  0  0  0
    3.2099   -2.0450    1.1106 H   0  0  0  0  0  0  0  0  0  0  0  0
    0.8304   -2.3038    1.1620 H   0  0  0  0  0  0  0  0  0  0  0  0
    2.7878    1.8853   -0.5398 H   0  0  0  0  0  0  0  0  0  0  0  0
    1.2950    3.5512   -1.1249 H   0  0  0  0  0  0  0  0  0  0  0  0
   -0.8949    4.6816   -1.5281 H   0  0  0  0  0  0  0  0  0  0  0  0
   -2.8818    3.2990   -1.0973 H   0  0  0  0  0  0  0  0  0  0  0  0
   -5.1264    2.1447   -1.6812 H   0  0  0  0  0  0  0  0  0  0  0  0
   -5.0370    2.6805    0.7559 H   0  0  0  0  0  0  0  0  0  0  0  0
   -7.3499    0.5149    0.0290 H   0  0  0  0  0  0  0  0  0  0  0  0
   -6.2805   -1.8063    0.5058 H   0  0  0  0  0  0  0  0  0  0  0  0
   -4.6841   -3.7142    0.7115 H   0  0  0  0  0  0  0  0  0  0  0  0
   -2.4961   -4.9354    0.7273 H   0  0  0  0  0  0  0  0  0  0  0  0
   -0.5130   -3.5299    0.3295 H   0  0  0  0  0  0  0  0  0  0  0  0
  1  2  1  0
  2  3  2  0
  3  4  1  0
  4  5  2  0
  5  6  1  0
  6  7  2  0
  7  8  1  0
  8  9  2  0
  9 10  1  0
 10 11  2  0
 10 12  1  0
 12 13  2  0
 13 14  1  0
 14 15  1  0
 15 16  2  0
 16 17  1  0
 17 18  1  0
 18 19  1  0
 19 20  1  0
 20 21  2  0
 21 22  1  0
 22 23  1  0
 23 24  2  0
 24 25  1  0
 25 26  1  0
 26 27  2  0
 27 28  1  0
  5  1  1  0
 11  6  1  0
 16 12  1  0
 28 17  2  0
 28  9  1  0
 22 18  2  0
 27 23  1  0
  1 29  1  0
  1 30  1  0
  2 31  1  0
  3 32  1  0
  4 33  1  0
  7 34  1  0
  8 35  1  0
 11 36  1  0
 13 37  1  0
 14 38  1  0
 15 39  1  0
 19 40  1  0
 19 41  1  0
 20 42  1  0
 21 43  1  0
 24 44  1  0
 25 45  1  0
 26 46  1  0
M  END
