
     RDKit          3D

 44 45  0  0  0  0  0  0  0  0999 V2000
    8.0326    0.1562    0.0652 C   0  0  0  0  0  0  0  0  0  0  0  0
    6.6552   -0.4600   -0.1023 C   0  0  0  0  0  0  0  0  0  0  0  0
    5.6865    0.5270    0.2468 O   0  0  0  0  0  0  0  0  0  0  0  0
    4.3716    0.1665    0.1543 C   0  0  0  0  0  0  0  0  0  0  0  0
    3.8840   -1.0752   -0.2400 C   0  0  0  0  0  0  0  0  0  0  0  0
    2.5016   -1.3033   -0.2886 C   0  0  0  0  0  0  0  0  0  0  0  0
    1.5759   -0.2981    0.0268 C   0  0  0  0  0  0  0  0  0  0  0  0
    0.2142   -0.6233    0.0180 N   0  0  0  0  0  0  0  0  0  0  0  0
   -0.7816    0.4449    0.0433 C   0  0  0  0  0  0  0  0  0  0  0  0
   -2.2035   -0.1429   -0.0229 C   0  0  0  0  0  0  0  0  0  0  0  0
   -2.5337   -0.6991   -1.4145 C   0  0  0  0  0  0  0  0  0  0  0  0
   -3.9849   -1.1505   -1.4902 C   0  0  0  0  0  0  0  0  0  0  0  0
   -4.8762   -0.0960   -1.1411 O   0  0  0  0  0  0  0  0  0  0  0  0
   -4.6889    0.4525    0.1709 C   0  0  0  0  0  0  0  0  0  0  0  0
   -5.0995   -0.5585    1.2518 C   0  0  0  0  0  0  0  0  0  0  0  0
   -5.6339    1.6597    0.2597 C   0  0  0  0  0  0  0  0  0  0  0  0
   -3.2369    0.9350    0.3439 C   0  0  0  0  0  0  0  0  0  0  0  0
    2.0839    0.9291    0.4603 C   0  0  0  0  0  0  0  0  0  0  0  0
    3.4640    1.1632    0.5089 C   0  0  0  0  0  0  0  0  0  0  0  0
    8.8154   -0.5633   -0.1910 H   0  0  0  0  0  0  0  0  0  0  0  0
    8.1829    0.4898    1.0973 H   0  0  0  0  0  0  0  0  0  0  0  0
    8.1405    1.0388   -0.5740 H   0  0  0  0  0  0  0  0  0  0  0  0
    6.5259   -0.7682   -1.1463 H   0  0  0  0  0  0  0  0  0  0  0  0
    6.5692   -1.3286    0.5607 H   0  0  0  0  0  0  0  0  0  0  0  0
    4.5437   -1.8931   -0.5073 H   0  0  0  0  0  0  0  0  0  0  0  0
    2.1500   -2.2913   -0.5767 H   0  0  0  0  0  0  0  0  0  0  0  0
    0.0212   -1.3450   -0.6709 H   0  0  0  0  0  0  0  0  0  0  0  0
   -0.6204    1.1398   -0.7902 H   0  0  0  0  0  0  0  0  0  0  0  0
   -0.6844    1.0049    0.9811 H   0  0  0  0  0  0  0  0  0  0  0  0
   -2.2739   -0.9609    0.7058 H   0  0  0  0  0  0  0  0  0  0  0  0
   -1.8801   -1.5392   -1.6705 H   0  0  0  0  0  0  0  0  0  0  0  0
   -2.3677    0.0857   -2.1635 H   0  0  0  0  0  0  0  0  0  0  0  0
   -4.1668   -2.0252   -0.8574 H   0  0  0  0  0  0  0  0  0  0  0  0
   -4.2200   -1.4498   -2.5170 H   0  0  0  0  0  0  0  0  0  0  0  0
   -4.4507   -1.4388    1.2692 H   0  0  0  0  0  0  0  0  0  0  0  0
   -6.1147   -0.9284    1.0676 H   0  0  0  0  0  0  0  0  0  0  0  0
   -5.0708   -0.1074    2.2495 H   0  0  0  0  0  0  0  0  0  0  0  0
   -6.6756    1.3512    0.1137 H   0  0  0  0  0  0  0  0  0  0  0  0
   -5.5542    2.1666    1.2270 H   0  0  0  0  0  0  0  0  0  0  0  0
   -5.4156    2.3862   -0.5317 H   0  0  0  0  0  0  0  0  0  0  0  0
   -3.0723    1.2831    1.3714 H   0  0  0  0  0  0  0  0  0  0  0  0
   -3.0686    1.7996   -0.3135 H   0  0  0  0  0  0  0  0  0  0  0  0
    1.4253    1.7338    0.7700 H   0  0  0  0  0  0  0  0  0  0  0  0
    3.8312    2.1325    0.8370 H   0  0  0  0  0  0  0  0  0  0  0  0
  1  2  1  0
  2  3  1  0
  3  4  1  0
  4  5  2  0
  5  6  1  0
  6  7  2  0
  7  8  1  0
  8  9  1  0
  9 10  1  0
 10 11  1  0
 11 12  1  0
 12 13  1  0
 13 14  1  0
 14 15  1  0
 14 16  1  0
 14 17  1  0
  7 18  1  0
 18 19  2  0
 19  4  1  0
 17 10  1  0
  1 20  1  0
  1 21  1  0
  1 22  1  0
  2 23  1  0
  2 24  1  0
  5 25  1  0
  6 26  1  0
  8 27  1  0
  9 28  1  0
  9 29  1  0
 10 30  1  0
 11 31  1  0
 11 32  1  0
 12 33  1  0
 12 34  1  0
 15 35  1  0
 15 36  1  0
 15 37  1  0
 16 38  1  0
 16 39  1  0
 16 40  1  0
 17 41  1  0
 17 42  1  0
 18 43  1  0
 19 44  1  0
M  END
