
     RDKit          3D

 45 46  0  0  0  0  0  0  0  0999 V2000
   -6.5417    0.9320   -1.1155 C   0  0  0  0  0  0  0  0  0  0  0  0
   -5.1266    0.5638   -1.5240 C   0  0  0  0  0  0  0  0  0  0  0  0
   -4.3935    0.2603   -0.3392 O   0  0  0  0  0  0  0  0  0  0  0  0
   -3.0899   -0.1436   -0.4724 C   0  0  0  0  0  0  0  0  0  0  0  0
   -2.4140   -0.2097   -1.6907 C   0  0  0  0  0  0  0  0  0  0  0  0
   -1.0865   -0.6297   -1.7361 C   0  0  0  0  0  0  0  0  0  0  0  0
   -0.4220   -1.0115   -0.5637 C   0  0  0  0  0  0  0  0  0  0  0  0
    1.2954   -1.4842   -0.7334 S   0  0  0  0  0  6  0  0  0  0  0  0
    1.7607   -1.0607   -2.0398 O   0  0  0  0  0  0  0  0  0  0  0  0
    1.4145   -2.8653   -0.3195 O   0  0  0  0  0  0  0  0  0  0  0  0
    2.0965   -0.4983    0.4020 N   0  0  0  0  0  0  0  0  0  0  0  0
    2.0477    0.9769    0.1342 C   0  0  0  0  0  0  0  0  0  0  0  0
    3.3993    1.5041   -0.3783 C   0  0  0  0  0  0  0  0  0  0  0  0
    4.4922    1.3363    0.6034 N   0  0  0  0  0  0  0  0  0  0  0  0
    5.7896    1.3631   -0.0684 C   0  0  0  0  0  0  0  0  0  0  0  0
    4.3139    0.1102    1.4088 C   0  0  0  0  0  0  0  0  0  0  0  0
    3.4747   -0.9872    0.7298 C   0  0  0  0  0  0  0  0  0  0  0  0
   -1.0875   -0.9911    0.6817 C   0  0  0  0  0  0  0  0  0  0  0  0
   -0.4071   -1.4175    1.9596 C   0  0  0  0  0  0  0  0  0  0  0  0
   -2.4252   -0.5038    0.7236 C   0  0  0  0  0  0  0  0  0  0  0  0
   -3.1668   -0.4124    2.0396 C   0  0  0  0  0  0  0  0  0  0  0  0
   -7.1495    1.1761   -1.9913 H   0  0  0  0  0  0  0  0  0  0  0  0
   -6.5359    1.7922   -0.4378 H   0  0  0  0  0  0  0  0  0  0  0  0
   -7.0147    0.1046   -0.5760 H   0  0  0  0  0  0  0  0  0  0  0  0
   -5.1617   -0.3092   -2.1859 H   0  0  0  0  0  0  0  0  0  0  0  0
   -4.6724    1.4152   -2.0435 H   0  0  0  0  0  0  0  0  0  0  0  0
   -2.8876    0.0663   -2.6270 H   0  0  0  0  0  0  0  0  0  0  0  0
   -0.5790   -0.6594   -2.6988 H   0  0  0  0  0  0  0  0  0  0  0  0
    1.7686    1.4784    1.0690 H   0  0  0  0  0  0  0  0  0  0  0  0
    1.2653    1.2235   -0.5906 H   0  0  0  0  0  0  0  0  0  0  0  0
    3.3028    2.5704   -0.6128 H   0  0  0  0  0  0  0  0  0  0  0  0
    3.6377    0.9858   -1.3168 H   0  0  0  0  0  0  0  0  0  0  0  0
    5.9073    2.2899   -0.6410 H   0  0  0  0  0  0  0  0  0  0  0  0
    5.9204    0.5152   -0.7503 H   0  0  0  0  0  0  0  0  0  0  0  0
    6.6021    1.3433    0.6663 H   0  0  0  0  0  0  0  0  0  0  0  0
    5.2804   -0.3039    1.7220 H   0  0  0  0  0  0  0  0  0  0  0  0
    3.8058    0.4060    2.3360 H   0  0  0  0  0  0  0  0  0  0  0  0
    3.3823   -1.8388    1.4130 H   0  0  0  0  0  0  0  0  0  0  0  0
    3.9859   -1.3275   -0.1787 H   0  0  0  0  0  0  0  0  0  0  0  0
    0.3547   -2.1819    1.7998 H   0  0  0  0  0  0  0  0  0  0  0  0
   -1.1172   -1.8785    2.6537 H   0  0  0  0  0  0  0  0  0  0  0  0
    0.0504   -0.5514    2.4473 H   0  0  0  0  0  0  0  0  0  0  0  0
   -2.5147   -0.0238    2.8287 H   0  0  0  0  0  0  0  0  0  0  0  0
   -3.5389   -1.4008    2.3265 H   0  0  0  0  0  0  0  0  0  0  0  0
   -4.0157    0.2767    1.9957 H   0  0  0  0  0  0  0  0  0  0  0  0
  1  2  1  0
  2  3  1  0
  3  4  1  0
  4  5  2  0
  5  6  1  0
  6  7  2  0
  7  8  1  0
  8  9  2  0
  8 10  2  0
  8 11  1  0
 11 12  1  0
 12 13  1  0
 13 14  1  0
 14 15  1  0
 14 16  1  0
 16 17  1  0
  7 18  1  0
 18 19  1  0
 18 20  2  0
 20 21  1  0
 20  4  1  0
 17 11  1  0
  1 22  1  0
  1 23  1  0
  1 24  1  0
  2 25  1  0
  2 26  1  0
  5 27  1  0
  6 28  1  0
 12 29  1  0
 12 30  1  0
 13 31  1  0
 13 32  1  0
 15 33  1  0
 15 34  1  0
 15 35  1  0
 16 36  1  0
 16 37  1  0
 17 38  1  0
 17 39  1  0
 19 40  1  0
 19 41  1  0
 19 42  1  0
 21 43  1  0
 21 44  1  0
 21 45  1  0
M  END
