
     RDKit          3D

 36 37  0  0  0  0  0  0  0  0999 V2000
    5.8254   -1.1242    0.4563 C   0  0  0  0  0  0  0  0  0  0  0  0
    4.6686   -1.3301    1.4187 C   0  0  0  0  0  0  0  0  0  0  0  0
    3.9356   -0.1196    1.6005 O   0  0  0  0  0  0  0  0  0  0  0  0
    2.9174    0.1778    0.7400 C   0  0  0  0  0  0  0  0  0  0  0  0
    2.2321    1.3593    1.0474 C   0  0  0  0  0  0  0  0  0  0  0  0
    1.1670    1.7959    0.2578 C   0  0  0  0  0  0  0  0  0  0  0  0
    0.7805    1.0346   -0.8458 C   0  0  0  0  0  0  0  0  0  0  0  0
   -0.5746    1.5874   -1.8511 S   0  0  0  0  0  6  0  0  0  0  0  0
   -0.5257    3.0309   -1.9018 O   0  0  0  0  0  0  0  0  0  0  0  0
   -0.6081    0.7788   -3.0493 O   0  0  0  0  0  0  0  0  0  0  0  0
   -1.9038    1.1843   -0.9235 N   0  0  0  0  0  0  0  0  0  0  0  0
   -2.1301   -0.2084   -0.5635 C   0  0  0  0  0  0  0  0  0  0  0  0
   -3.5556   -0.4243   -0.1269 C   0  0  0  0  0  0  0  0  0  0  0  0
   -3.8665   -0.7753    1.1896 C   0  0  0  0  0  0  0  0  0  0  0  0
   -5.1983   -0.9550    1.5311 C   0  0  0  0  0  0  0  0  0  0  0  0
   -6.2227   -0.8085    0.6650 N   0  0  0  0  0  0  0  0  0  0  0  0
   -5.9033   -0.4656   -0.6009 C   0  0  0  0  0  0  0  0  0  0  0  0
   -4.6044   -0.2655   -1.0390 C   0  0  0  0  0  0  0  0  0  0  0  0
    1.4660   -0.1368   -1.1762 C   0  0  0  0  0  0  0  0  0  0  0  0
    2.5333   -0.5643   -0.3786 C   0  0  0  0  0  0  0  0  0  0  0  0
    5.4724   -0.8546   -0.5434 H   0  0  0  0  0  0  0  0  0  0  0  0
    6.4662   -0.3044    0.7978 H   0  0  0  0  0  0  0  0  0  0  0  0
    6.4292   -2.0329    0.3783 H   0  0  0  0  0  0  0  0  0  0  0  0
    4.0271   -2.1699    1.1303 H   0  0  0  0  0  0  0  0  0  0  0  0
    5.0798   -1.5918    2.4004 H   0  0  0  0  0  0  0  0  0  0  0  0
    2.5400    1.9484    1.9090 H   0  0  0  0  0  0  0  0  0  0  0  0
    0.6567    2.7240    0.5040 H   0  0  0  0  0  0  0  0  0  0  0  0
   -2.2247    1.9120   -0.2886 H   0  0  0  0  0  0  0  0  0  0  0  0
   -1.9204   -0.8765   -1.4061 H   0  0  0  0  0  0  0  0  0  0  0  0
   -1.4529   -0.4823    0.2531 H   0  0  0  0  0  0  0  0  0  0  0  0
   -3.0958   -0.9088    1.9414 H   0  0  0  0  0  0  0  0  0  0  0  0
   -5.4850   -1.2296    2.5424 H   0  0  0  0  0  0  0  0  0  0  0  0
   -6.7457   -0.3504   -1.2771 H   0  0  0  0  0  0  0  0  0  0  0  0
   -4.4135    0.0151   -2.0707 H   0  0  0  0  0  0  0  0  0  0  0  0
    1.1845   -0.7189   -2.0515 H   0  0  0  0  0  0  0  0  0  0  0  0
    3.0494   -1.4733   -0.6692 H   0  0  0  0  0  0  0  0  0  0  0  0
  1  2  1  0
  2  3  1  0
  3  4  1  0
  4  5  2  0
  5  6  1  0
  6  7  2  0
  7  8  1  0
  8  9  2  0
  8 10  2  0
  8 11  1  0
 11 12  1  0
 12 13  1  0
 13 14  2  0
 14 15  1  0
 15 16  2  0
 16 17  1  0
 17 18  2  0
  7 19  1  0
 19 20  2  0
 20  4  1  0
 18 13  1  0
  1 21  1  0
  1 22  1  0
  1 23  1  0
  2 24  1  0
  2 25  1  0
  5 26  1  0
  6 27  1  0
 11 28  1  0
 12 29  1  0
 12 30  1  0
 14 31  1  0
 15 32  1  0
 17 33  1  0
 18 34  1  0
 19 35  1  0
 20 36  1  0
M  END
