
     RDKit          3D

 41 42  0  0  0  0  0  0  0  0999 V2000
    2.4978   -0.6889    2.2528 C   0  0  0  0  0  0  0  0  0  0  0  0
    3.1013   -0.2193    0.9419 C   0  0  0  0  0  0  0  0  0  0  0  0
    2.3006   -0.7404   -0.1288 O   0  0  0  0  0  0  0  0  0  0  0  0
    2.5558   -0.0851   -1.3078 C   0  0  0  0  0  0  0  0  0  0  0  0
    3.8005   -0.2620   -1.9257 C   0  0  0  0  0  0  0  0  0  0  0  0
    4.0855    0.3832   -3.1286 C   0  0  0  0  0  0  0  0  0  0  0  0
    3.1260    1.1973   -3.7240 C   0  0  0  0  0  0  0  0  0  0  0  0
    1.8747    1.3548   -3.1233 C   0  0  0  0  0  0  0  0  0  0  0  0
    1.5662    0.7034   -1.9163 C   0  0  0  0  0  0  0  0  0  0  0  0
    0.1932    0.9201   -1.3533 C   0  0  0  0  0  0  0  0  0  0  0  0
   -0.4513    1.8865   -1.7513 O   0  0  0  0  0  0  0  0  0  0  0  0
   -0.2406   -0.0159   -0.4403 N   0  0  0  0  0  0  0  0  0  0  0  0
   -1.4752   -0.0847    0.2455 C   0  0  0  0  0  0  0  0  0  0  0  0
   -2.4970    0.8592    0.0903 C   0  0  0  0  0  0  0  0  0  0  0  0
   -3.6916    0.7313    0.8020 C   0  0  0  0  0  0  0  0  0  0  0  0
   -4.7612    1.5831    0.7396 O   0  0  0  0  0  0  0  0  0  0  0  0
   -4.6445    2.6936   -0.1430 C   0  0  0  0  0  0  0  0  0  0  0  0
   -3.8596   -0.3470    1.6716 C   0  0  0  0  0  0  0  0  0  0  0  0
   -2.8497   -1.2975    1.8364 C   0  0  0  0  0  0  0  0  0  0  0  0
   -1.6546   -1.1736    1.1264 C   0  0  0  0  0  0  0  0  0  0  0  0
   -0.5973   -2.0495    1.2097 O   0  0  0  0  0  0  0  0  0  0  0  0
   -0.7439   -3.1635    2.0805 C   0  0  0  0  0  0  0  0  0  0  0  0
    2.4399   -1.7818    2.2826 H   0  0  0  0  0  0  0  0  0  0  0  0
    1.4763   -0.3108    2.3632 H   0  0  0  0  0  0  0  0  0  0  0  0
    3.0933   -0.3424    3.1020 H   0  0  0  0  0  0  0  0  0  0  0  0
    3.1165    0.8778    0.9228 H   0  0  0  0  0  0  0  0  0  0  0  0
    4.1256   -0.5996    0.8593 H   0  0  0  0  0  0  0  0  0  0  0  0
    4.5493   -0.9103   -1.4787 H   0  0  0  0  0  0  0  0  0  0  0  0
    5.0542    0.2474   -3.6033 H   0  0  0  0  0  0  0  0  0  0  0  0
    3.3443    1.7041   -4.6611 H   0  0  0  0  0  0  0  0  0  0  0  0
    1.1311    1.9858   -3.6080 H   0  0  0  0  0  0  0  0  0  0  0  0
    0.4027   -0.7704   -0.2038 H   0  0  0  0  0  0  0  0  0  0  0  0
   -2.3572    1.6927   -0.5846 H   0  0  0  0  0  0  0  0  0  0  0  0
   -5.5747    3.2668   -0.0818 H   0  0  0  0  0  0  0  0  0  0  0  0
   -3.8263    3.3550    0.1606 H   0  0  0  0  0  0  0  0  0  0  0  0
   -4.5255    2.3634   -1.1803 H   0  0  0  0  0  0  0  0  0  0  0  0
   -4.7897   -0.4474    2.2264 H   0  0  0  0  0  0  0  0  0  0  0  0
   -3.0321   -2.1162    2.5233 H   0  0  0  0  0  0  0  0  0  0  0  0
    0.1766   -3.7527    2.0253 H   0  0  0  0  0  0  0  0  0  0  0  0
   -0.8684   -2.8390    3.1188 H   0  0  0  0  0  0  0  0  0  0  0  0
   -1.5705   -3.8075    1.7629 H   0  0  0  0  0  0  0  0  0  0  0  0
  1  2  1  0
  2  3  1  0
  3  4  1  0
  4  5  2  0
  5  6  1  0
  6  7  2  0
  7  8  1  0
  8  9  2  0
  9 10  1  0
 10 11  2  0
 10 12  1  0
 12 13  1  0
 13 14  2  0
 14 15  1  0
 15 16  1  0
 16 17  1  0
 15 18  2  0
 18 19  1  0
 19 20  2  0
 20 21  1  0
 21 22  1  0
  9  4  1  0
 20 13  1  0
  1 23  1  0
  1 24  1  0
  1 25  1  0
  2 26  1  0
  2 27  1  0
  5 28  1  0
  6 29  1  0
  7 30  1  0
  8 31  1  0
 12 32  1  0
 14 33  1  0
 17 34  1  0
 17 35  1  0
 17 36  1  0
 18 37  1  0
 19 38  1  0
 22 39  1  0
 22 40  1  0
 22 41  1  0
M  END
