
     RDKit          3D

 35 37  0  0  0  0  0  0  0  0999 V2000
   -1.4533   -2.8892   -1.5334 C   0  0  0  0  0  0  0  0  0  0  0  0
   -2.2312   -1.6425   -1.1512 C   0  0  0  0  0  0  0  0  0  0  0  0
   -1.3568   -0.7947   -0.4081 O   0  0  0  0  0  0  0  0  0  0  0  0
   -1.9209    0.4061   -0.0264 C   0  0  0  0  0  0  0  0  0  0  0  0
   -3.2367    0.6041   -0.3081 N   0  0  0  0  0  0  0  0  0  0  0  0
   -3.8092    1.7589    0.0997 C   0  0  0  0  0  0  0  0  0  0  0  0
   -5.2599    1.9590   -0.2204 C   0  0  0  0  0  0  0  0  0  0  0  0
   -3.1054    2.7337    0.7926 C   0  0  0  0  0  0  0  0  0  0  0  0
   -1.7582    2.5140    1.0725 C   0  0  0  0  0  0  0  0  0  0  0  0
   -1.1306    1.3302    0.6578 C   0  0  0  0  0  0  0  0  0  0  0  0
    0.2808    1.1144    0.9475 C   0  0  0  0  0  0  0  0  0  0  0  0
    0.9291    1.7489    1.9413 N   0  0  0  0  0  0  0  0  0  0  0  0
    2.2352    1.2675    1.8498 O   0  0  0  0  0  0  0  0  0  0  0  0
    2.2580    0.3971    0.7989 C   0  0  0  0  0  0  0  0  0  0  0  0
    3.5288   -0.2507    0.4980 C   0  0  0  0  0  0  0  0  0  0  0  0
    3.6235   -1.1735   -0.5412 C   0  0  0  0  0  0  0  0  0  0  0  0
    4.8544   -1.7718   -0.7986 C   0  0  0  0  0  0  0  0  0  0  0  0
    5.9513   -1.4336   -0.0153 C   0  0  0  0  0  0  0  0  0  0  0  0
    5.7725   -0.5069    0.9983 C   0  0  0  0  0  0  0  0  0  0  0  0
    4.5919    0.0902    1.2720 N   0  0  0  0  0  0  0  0  0  0  0  0
    1.0888    0.2810    0.2065 N   0  0  0  0  0  0  0  0  0  0  0  0
   -0.5738   -2.6267   -2.1308 H   0  0  0  0  0  0  0  0  0  0  0  0
   -1.0882   -3.4051   -0.6391 H   0  0  0  0  0  0  0  0  0  0  0  0
   -2.0784   -3.5781   -2.1084 H   0  0  0  0  0  0  0  0  0  0  0  0
   -3.0937   -1.9334   -0.5397 H   0  0  0  0  0  0  0  0  0  0  0  0
   -2.5702   -1.1397   -2.0650 H   0  0  0  0  0  0  0  0  0  0  0  0
   -5.6590    1.1017   -0.7721 H   0  0  0  0  0  0  0  0  0  0  0  0
   -5.8387    2.0704    0.7017 H   0  0  0  0  0  0  0  0  0  0  0  0
   -5.3912    2.8527   -0.8384 H   0  0  0  0  0  0  0  0  0  0  0  0
   -3.5888    3.6515    1.1124 H   0  0  0  0  0  0  0  0  0  0  0  0
   -1.2005    3.2765    1.6131 H   0  0  0  0  0  0  0  0  0  0  0  0
    2.7527   -1.4243   -1.1407 H   0  0  0  0  0  0  0  0  0  0  0  0
    4.9544   -2.4951   -1.6031 H   0  0  0  0  0  0  0  0  0  0  0  0
    6.9234   -1.8817   -0.1897 H   0  0  0  0  0  0  0  0  0  0  0  0
    6.5999   -0.2106    1.6375 H   0  0  0  0  0  0  0  0  0  0  0  0
  1  2  1  0
  2  3  1  0
  3  4  1  0
  4  5  2  0
  5  6  1  0
  6  7  1  0
  6  8  2  0
  8  9  1  0
  9 10  2  0
 10 11  1  0
 11 12  2  0
 12 13  1  0
 13 14  1  0
 14 15  1  0
 15 16  2  0
 16 17  1  0
 17 18  2  0
 18 19  1  0
 19 20  2  0
 14 21  2  0
 10  4  1  0
 21 11  1  0
 20 15  1  0
  1 22  1  0
  1 23  1  0
  1 24  1  0
  2 25  1  0
  2 26  1  0
  7 27  1  0
  7 28  1  0
  7 29  1  0
  8 30  1  0
  9 31  1  0
 16 32  1  0
 17 33  1  0
 18 34  1  0
 19 35  1  0
M  END
