
     RDKit          3D

 38 39  0  0  0  0  0  0  0  0999 V2000
    5.7172    0.8188   -0.0562 C   0  0  0  0  0  0  0  0  0  0  0  0
    4.2271    0.9373   -0.3083 C   0  0  0  0  0  0  0  0  0  0  0  0
    3.7377   -0.3406   -0.7117 O   0  0  0  0  0  0  0  0  0  0  0  0
    2.3309   -0.3470   -0.9629 C   0  0  0  0  0  0  0  0  0  0  0  0
    1.5404   -0.5906    0.3194 C   0  0  0  0  0  0  0  0  0  0  0  0
    0.1095   -0.4807    0.1158 N   0  0  0  0  0  0  0  0  0  0  0  0
   -0.6666    0.6543    0.2143 C   0  0  0  0  0  0  0  0  0  0  0  0
   -0.0059    2.2183    0.5652 S   0  0  0  0  0  0  0  0  0  0  0  0
   -1.5100    3.2248    0.7381 C   0  0  0  0  0  0  0  0  0  0  0  0
   -2.1781    3.0084    2.0853 C   0  0  0  0  0  0  0  0  0  0  0  0
   -1.9391    0.4028   -0.0119 N   0  0  0  0  0  0  0  0  0  0  0  0
   -1.9822   -0.9306   -0.2675 C   0  0  0  0  0  0  0  0  0  0  0  0
   -0.7438   -1.5041   -0.2077 C   0  0  0  0  0  0  0  0  0  0  0  0
   -0.5340   -2.8874   -0.4601 C   0  0  0  0  0  0  0  0  0  0  0  0
    0.5536   -3.4504   -0.4516 O   0  0  0  0  0  0  0  0  0  0  0  0
   -1.7049   -3.5567   -0.7364 N   0  0  0  0  0  0  0  0  0  0  0  0
   -2.9790   -3.0247   -0.8134 C   0  0  0  0  0  0  0  0  0  0  0  0
   -3.9182   -3.7689   -1.0946 O   0  0  0  0  0  0  0  0  0  0  0  0
   -3.1117   -1.6624   -0.5664 N   0  0  0  0  0  0  0  0  0  0  0  0
   -4.4112   -1.0221   -0.6274 C   0  0  0  0  0  0  0  0  0  0  0  0
    6.1384    1.7797    0.2525 H   0  0  0  0  0  0  0  0  0  0  0  0
    5.9182    0.0775    0.7243 H   0  0  0  0  0  0  0  0  0  0  0  0
    6.2355    0.4794   -0.9591 H   0  0  0  0  0  0  0  0  0  0  0  0
    4.0431    1.6691   -1.1024 H   0  0  0  0  0  0  0  0  0  0  0  0
    3.7235    1.2664    0.6059 H   0  0  0  0  0  0  0  0  0  0  0  0
    2.1358   -1.1634   -1.6675 H   0  0  0  0  0  0  0  0  0  0  0  0
    2.0291    0.5792   -1.4667 H   0  0  0  0  0  0  0  0  0  0  0  0
    1.7634   -1.5836    0.7241 H   0  0  0  0  0  0  0  0  0  0  0  0
    1.8312    0.1040    1.1136 H   0  0  0  0  0  0  0  0  0  0  0  0
   -2.2064    3.0219   -0.0818 H   0  0  0  0  0  0  0  0  0  0  0  0
   -1.2128    4.2752    0.6524 H   0  0  0  0  0  0  0  0  0  0  0  0
   -3.0547    3.6590    2.1726 H   0  0  0  0  0  0  0  0  0  0  0  0
   -2.5211    1.9770    2.2131 H   0  0  0  0  0  0  0  0  0  0  0  0
   -1.5019    3.2539    2.9112 H   0  0  0  0  0  0  0  0  0  0  0  0
   -1.6269   -4.5428   -0.9299 H   0  0  0  0  0  0  0  0  0  0  0  0
   -5.2034   -1.7375   -0.8636 H   0  0  0  0  0  0  0  0  0  0  0  0
   -4.6300   -0.5636    0.3421 H   0  0  0  0  0  0  0  0  0  0  0  0
   -4.3927   -0.2498   -1.4028 H   0  0  0  0  0  0  0  0  0  0  0  0
  1  2  1  0
  2  3  1  0
  3  4  1  0
  4  5  1  0
  5  6  1  0
  6  7  1  0
  7  8  1  0
  8  9  1  0
  9 10  1  0
  7 11  2  0
 11 12  1  0
 12 13  2  0
 13 14  1  0
 14 15  2  0
 14 16  1  0
 16 17  1  0
 17 18  2  0
 17 19  1  0
 19 20  1  0
 13  6  1  0
 19 12  1  0
  1 21  1  0
  1 22  1  0
  1 23  1  0
  2 24  1  0
  2 25  1  0
  4 26  1  0
  4 27  1  0
  5 28  1  0
  5 29  1  0
  9 30  1  0
  9 31  1  0
 10 32  1  0
 10 33  1  0
 10 34  1  0
 16 35  1  0
 20 36  1  0
 20 37  1  0
 20 38  1  0
M  END
