
     RDKit          3D

 38 39  0  0  0  0  0  0  0  0999 V2000
    4.7752    0.7664   -0.8837 C   0  0  0  0  0  0  0  0  0  0  0  0
    4.2167   -0.6213   -0.6494 C   0  0  0  0  0  0  0  0  0  0  0  0
    3.5484   -0.8760    0.9972 S   0  0  0  0  0  6  0  0  0  0  0  0
    4.2937   -0.0561    1.9281 O   0  0  0  0  0  0  0  0  0  0  0  0
    3.4449   -2.3073    1.1949 O   0  0  0  0  0  0  0  0  0  0  0  0
    1.9823   -0.2741    0.9130 N   0  0  0  0  0  0  0  0  0  0  0  0
    1.7700    1.1804    0.8044 C   0  0  0  0  0  0  0  0  0  0  0  0
    0.4178    1.5367    1.4212 C   0  0  0  0  0  0  0  0  0  0  0  0
   -0.6976    0.7389    0.7922 C   0  0  0  0  0  0  0  0  0  0  0  0
   -2.0123    1.2284    0.8146 C   0  0  0  0  0  0  0  0  0  0  0  0
   -3.0606    0.4878    0.2574 C   0  0  0  0  0  0  0  0  0  0  0  0
   -4.3706    0.8986    0.2270 O   0  0  0  0  0  0  0  0  0  0  0  0
   -4.6939    2.1232    0.8689 C   0  0  0  0  0  0  0  0  0  0  0  0
   -2.7931   -0.7679   -0.3212 C   0  0  0  0  0  0  0  0  0  0  0  0
   -3.8730   -1.4295   -0.8524 O   0  0  0  0  0  0  0  0  0  0  0  0
   -3.6717   -2.7551   -1.3197 C   0  0  0  0  0  0  0  0  0  0  0  0
   -1.4827   -1.2600   -0.3307 C   0  0  0  0  0  0  0  0  0  0  0  0
   -0.4290   -0.5188    0.2299 C   0  0  0  0  0  0  0  0  0  0  0  0
    0.9770   -1.0878    0.1964 C   0  0  0  0  0  0  0  0  0  0  0  0
    4.0094    1.5383   -0.7884 H   0  0  0  0  0  0  0  0  0  0  0  0
    5.5742    0.9973   -0.1722 H   0  0  0  0  0  0  0  0  0  0  0  0
    5.1956    0.8359   -1.8920 H   0  0  0  0  0  0  0  0  0  0  0  0
    3.4489   -0.8784   -1.3825 H   0  0  0  0  0  0  0  0  0  0  0  0
    5.0249   -1.3536   -0.7571 H   0  0  0  0  0  0  0  0  0  0  0  0
    1.7942    1.4770   -0.2507 H   0  0  0  0  0  0  0  0  0  0  0  0
    2.5512    1.7342    1.3341 H   0  0  0  0  0  0  0  0  0  0  0  0
    0.4273    1.3278    2.4980 H   0  0  0  0  0  0  0  0  0  0  0  0
    0.2383    2.6095    1.2848 H   0  0  0  0  0  0  0  0  0  0  0  0
   -2.1922    2.1951    1.2739 H   0  0  0  0  0  0  0  0  0  0  0  0
   -4.4533    2.0870    1.9366 H   0  0  0  0  0  0  0  0  0  0  0  0
   -5.7739    2.2740    0.7773 H   0  0  0  0  0  0  0  0  0  0  0  0
   -4.1985    2.9678    0.3789 H   0  0  0  0  0  0  0  0  0  0  0  0
   -4.6412   -3.1468   -1.6425 H   0  0  0  0  0  0  0  0  0  0  0  0
   -3.2996   -3.4060   -0.5216 H   0  0  0  0  0  0  0  0  0  0  0  0
   -3.0032   -2.7688   -2.1867 H   0  0  0  0  0  0  0  0  0  0  0  0
   -1.2533   -2.2259   -0.7698 H   0  0  0  0  0  0  0  0  0  0  0  0
    0.9386   -2.0833    0.6536 H   0  0  0  0  0  0  0  0  0  0  0  0
    1.2711   -1.1878   -0.8540 H   0  0  0  0  0  0  0  0  0  0  0  0
  1  2  1  0
  2  3  1  0
  3  4  2  0
  3  5  2  0
  3  6  1  0
  6  7  1  0
  7  8  1  0
  8  9  1  0
  9 10  2  0
 10 11  1  0
 11 12  1  0
 12 13  1  0
 11 14  2  0
 14 15  1  0
 15 16  1  0
 14 17  1  0
 17 18  2  0
 18 19  1  0
 19  6  1  0
 18  9  1  0
  1 20  1  0
  1 21  1  0
  1 22  1  0
  2 23  1  0
  2 24  1  0
  7 25  1  0
  7 26  1  0
  8 27  1  0
  8 28  1  0
 10 29  1  0
 13 30  1  0
 13 31  1  0
 13 32  1  0
 16 33  1  0
 16 34  1  0
 16 35  1  0
 17 36  1  0
 19 37  1  0
 19 38  1  0
M  END
