
     RDKit          3D

 36 38  0  0  0  0  0  0  0  0999 V2000
    5.0672   -0.0437    0.4677 C   0  0  0  0  0  0  0  0  0  0  0  0
    4.7148   -1.0120   -0.6490 C   0  0  0  0  0  0  0  0  0  0  0  0
    3.9969   -0.1582   -2.0890 S   0  0  0  0  0  0  0  0  0  0  0  0
    2.4024    0.2789   -1.4473 C   0  0  0  0  0  0  0  0  0  0  0  0
    1.8329    1.4029   -1.9167 N   0  0  0  0  0  0  0  0  0  0  0  0
    0.5981    1.7766   -1.4533 N   0  0  0  0  0  0  0  0  0  0  0  0
   -0.0471    1.0172   -0.5374 C   0  0  0  0  0  0  0  0  0  0  0  0
    0.5912   -0.1397   -0.1265 C   0  0  0  0  0  0  0  0  0  0  0  0
    1.8156   -0.5276   -0.5563 N   0  0  0  0  0  0  0  0  0  0  0  0
    0.0710   -1.0057    0.7810 O   0  0  0  0  0  0  0  0  0  0  0  0
   -1.2057   -1.5273    0.4266 C   0  0  0  0  0  0  0  0  0  0  0  0
   -1.3587   -1.9878   -1.0345 C   0  0  0  0  0  0  0  0  0  0  0  0
   -1.3492   -2.7802    1.3152 C   0  0  0  0  0  0  0  0  0  0  0  0
   -2.2772   -0.6274    0.8108 N   0  0  0  0  0  0  0  0  0  0  0  0
   -2.3684    0.7239    0.4993 C   0  0  0  0  0  0  0  0  0  0  0  0
   -3.5669    1.3531    0.9166 C   0  0  0  0  0  0  0  0  0  0  0  0
   -3.8049    2.7137    0.7349 C   0  0  0  0  0  0  0  0  0  0  0  0
   -2.8324    3.4954    0.1433 C   0  0  0  0  0  0  0  0  0  0  0  0
   -1.6309    2.9073   -0.2505 C   0  0  0  0  0  0  0  0  0  0  0  0
   -1.3566    1.5220   -0.0789 C   0  0  0  0  0  0  0  0  0  0  0  0
    4.1813    0.4530    0.8755 H   0  0  0  0  0  0  0  0  0  0  0  0
    5.5462   -0.5858    1.2900 H   0  0  0  0  0  0  0  0  0  0  0  0
    5.7696    0.7239    0.1255 H   0  0  0  0  0  0  0  0  0  0  0  0
    4.0456   -1.7998   -0.2894 H   0  0  0  0  0  0  0  0  0  0  0  0
    5.6302   -1.5067   -0.9906 H   0  0  0  0  0  0  0  0  0  0  0  0
   -0.5328   -2.6471   -1.3248 H   0  0  0  0  0  0  0  0  0  0  0  0
   -1.3620   -1.1506   -1.7401 H   0  0  0  0  0  0  0  0  0  0  0  0
   -2.3020   -2.5258   -1.1840 H   0  0  0  0  0  0  0  0  0  0  0  0
   -2.3143   -3.2786    1.1704 H   0  0  0  0  0  0  0  0  0  0  0  0
   -0.5504   -3.5012    1.1053 H   0  0  0  0  0  0  0  0  0  0  0  0
   -1.2628   -2.5177    2.3769 H   0  0  0  0  0  0  0  0  0  0  0  0
   -3.1825   -1.0855    0.8627 H   0  0  0  0  0  0  0  0  0  0  0  0
   -4.3414    0.7661    1.4079 H   0  0  0  0  0  0  0  0  0  0  0  0
   -4.7414    3.1547    1.0642 H   0  0  0  0  0  0  0  0  0  0  0  0
   -2.9940    4.5596   -0.0058 H   0  0  0  0  0  0  0  0  0  0  0  0
   -0.8812    3.5603   -0.6996 H   0  0  0  0  0  0  0  0  0  0  0  0
  1  2  1  0
  2  3  1  0
  3  4  1  0
  4  5  2  0
  5  6  1  0
  6  7  2  0
  7  8  1  0
  8  9  2  0
  8 10  1  0
 10 11  1  0
 11 12  1  0
 11 13  1  0
 11 14  1  0
 14 15  1  0
 15 16  2  0
 16 17  1  0
 17 18  2  0
 18 19  1  0
 19 20  2  0
  9  4  1  0
 20 15  1  0
 20  7  1  0
  1 21  1  0
  1 22  1  0
  1 23  1  0
  2 24  1  0
  2 25  1  0
 12 26  1  0
 12 27  1  0
 12 28  1  0
 13 29  1  0
 13 30  1  0
 13 31  1  0
 14 32  1  0
 16 33  1  0
 17 34  1  0
 18 35  1  0
 19 36  1  0
M  END
