
     RDKit          3D

 41 47  0  0  0  0  0  0  0  0999 V2000
    5.9444   -0.6847   -0.5463 Si  0  0  0  0  0  4  0  0  0  0  0  0
    6.4473    0.0661    1.1847 C   0  0  0  0  0  0  0  0  0  0  0  0
    5.3692    0.4670    1.8958 C   0  0  0  0  0  0  0  0  0  0  0  0
    4.1865    0.2195    1.1648 C   0  0  0  0  0  0  0  0  0  0  0  0
    2.8998    0.4847    1.5403 N   0  0  0  0  0  0  0  0  0  0  0  0
    2.0345    0.0823    0.5200 C   0  0  0  0  0  0  0  0  0  0  0  0
    2.8741   -0.4303   -0.4749 C   0  0  0  0  0  0  0  0  0  0  0  0
    4.1834   -0.3503   -0.0887 C   0  0  0  0  0  0  0  0  0  0  0  0
    2.2574   -0.9177   -1.6507 C   0  0  0  0  0  0  0  0  0  0  0  0
    2.7762   -1.4663   -2.7797 C   0  0  0  0  0  0  0  0  0  0  0  0
    1.7247   -1.7654   -3.6110 O   0  0  0  0  0  0  0  0  0  0  0  0
    0.5700   -1.3884   -2.9675 C   0  0  0  0  0  0  0  0  0  0  0  0
    0.8587   -0.8524   -1.7327 C   0  0  0  0  0  0  0  0  0  0  0  0
   -0.0521   -0.3530   -0.7739 C   0  0  0  0  0  0  0  0  0  0  0  0
   -1.4617   -0.3001   -0.8823 C   0  0  0  0  0  0  0  0  0  0  0  0
   -2.2428    0.2289    0.1589 C   0  0  0  0  0  0  0  0  0  0  0  0
   -1.5828    0.7007    1.3091 C   0  0  0  0  0  0  0  0  0  0  0  0
   -0.1867    0.6578    1.4342 C   0  0  0  0  0  0  0  0  0  0  0  0
    0.6019    0.1312    0.3995 C   0  0  0  0  0  0  0  0  0  0  0  0
   -3.7059    0.2639    0.0509 C   0  0  0  0  0  0  0  0  0  0  0  0
   -4.4762   -0.8793   -0.2857 C   0  0  0  0  0  0  0  0  0  0  0  0
   -5.8868   -0.8810   -0.4030 C   0  0  0  0  0  0  0  0  0  0  0  0
   -6.6707    0.2635   -0.1970 C   0  0  0  0  0  0  0  0  0  0  0  0
   -5.9712    1.4454    0.1412 C   0  0  0  0  0  0  0  0  0  0  0  0
   -6.5364    2.6397    0.3757 N   0  0  0  0  0  0  0  0  0  0  0  0
   -5.2962    3.6873    0.7147 S   0  0  0  0  0  0  0  0  0  0  0  0
   -3.9899    2.6752    0.5923 N   0  0  0  0  0  0  0  0  0  0  0  0
   -4.4624    1.4565    0.2706 C   0  0  0  0  0  0  0  0  0  0  0  0
    6.3214   -2.1195   -0.6060 H   0  0  0  0  0  0  0  0  0  0  0  0
    6.4858    0.1581   -1.6421 H   0  0  0  0  0  0  0  0  0  0  0  0
    7.4877    0.1175    1.4610 H   0  0  0  0  0  0  0  0  0  0  0  0
    5.4058    0.9130    2.8810 H   0  0  0  0  0  0  0  0  0  0  0  0
    2.6104    0.9054    2.4112 H   0  0  0  0  0  0  0  0  0  0  0  0
    3.7585   -1.7080   -3.1558 H   0  0  0  0  0  0  0  0  0  0  0  0
   -0.3385   -1.5708   -3.5233 H   0  0  0  0  0  0  0  0  0  0  0  0
   -1.9426   -0.6622   -1.7874 H   0  0  0  0  0  0  0  0  0  0  0  0
   -2.1616    1.1142    2.1343 H   0  0  0  0  0  0  0  0  0  0  0  0
    0.2603    1.0415    2.3461 H   0  0  0  0  0  0  0  0  0  0  0  0
   -3.9576   -1.8254   -0.4548 H   0  0  0  0  0  0  0  0  0  0  0  0
   -6.3858   -1.8152   -0.6629 H   0  0  0  0  0  0  0  0  0  0  0  0
   -7.7500    0.2508   -0.2897 H   0  0  0  0  0  0  0  0  0  0  0  0
  1  2  1  0
  2  3  2  0
  3  4  1  0
  4  5  1  0
  5  6  1  0
  6  7  2  0
  7  8  1  0
  7  9  1  0
  9 10  2  0
 10 11  1  0
 11 12  1  0
 12 13  2  0
 13 14  1  0
 14 15  2  0
 15 16  1  0
 16 17  2  0
 17 18  1  0
 18 19  2  0
 16 20  1  0
 20 21  2  0
 21 22  1  0
 22 23  2  0
 23 24  1  0
 24 25  2  0
 25 26  1  0
 26 27  1  0
 27 28  2  0
  8  1  1  0
 13  9  1  0
 19 14  1  0
 28 20  1  0
  8  4  2  0
 28 24  1  0
 19  6  1  0
  1 29  1  0
  1 30  1  0
  2 31  1  0
  3 32  1  0
  5 33  1  0
 10 34  1  0
 12 35  1  0
 15 36  1  0
 17 37  1  0
 18 38  1  0
 21 39  1  0
 22 40  1  0
 23 41  1  0
M  END
