
     RDKit          3D

 23 25  0  0  0  0  0  0  0  0999 V2000
    5.1214    1.1191    0.2549 Cl  0  0  0  0  0  0  0  0  0  0  0  0
    3.4715    0.6475    0.1376 C   0  0  0  0  0  0  0  0  0  0  0  0
    2.5901    1.3958   -0.6383 C   0  0  0  0  0  0  0  0  0  0  0  0
    1.2495    1.0110   -0.7345 C   0  0  0  0  0  0  0  0  0  0  0  0
    3.0238   -0.4808    0.8207 C   0  0  0  0  0  0  0  0  0  0  0  0
    1.6831   -0.8656    0.7248 C   0  0  0  0  0  0  0  0  0  0  0  0
    0.7821   -0.1249   -0.0568 C   0  0  0  0  0  0  0  0  0  0  0  0
   -0.6316   -0.5323   -0.1676 C   0  0  0  0  0  0  0  0  0  0  0  0
   -0.9289   -1.7609   -0.6320 C   0  0  0  0  0  0  0  0  0  0  0  0
   -2.3759   -2.0896   -0.7266 C   0  0  0  0  0  0  0  0  0  0  0  0
   -3.3652   -1.3144   -0.4119 N   0  0  0  0  0  0  0  0  0  0  0  0
   -3.0264   -0.0747    0.0504 C   0  0  0  0  0  0  0  0  0  0  0  0
   -3.8120    0.9064    0.4373 N   0  0  0  0  0  0  0  0  0  0  0  0
   -2.9432    1.8885    0.7917 C   0  0  0  0  0  0  0  0  0  0  0  0
   -1.6502    1.6033    0.6530 N   0  0  0  0  0  0  0  0  0  0  0  0
   -1.6863    0.3306    0.1762 N   0  0  0  0  0  0  0  0  0  0  0  0
    2.9350    2.2811   -1.1662 H   0  0  0  0  0  0  0  0  0  0  0  0
    0.5733    1.6136   -1.3388 H   0  0  0  0  0  0  0  0  0  0  0  0
    3.7096   -1.0607    1.4329 H   0  0  0  0  0  0  0  0  0  0  0  0
    1.3497   -1.7412    1.2781 H   0  0  0  0  0  0  0  0  0  0  0  0
   -0.2058   -2.5027   -0.9437 H   0  0  0  0  0  0  0  0  0  0  0  0
   -2.5979   -3.1014   -1.1063 H   0  0  0  0  0  0  0  0  0  0  0  0
   -3.2656    2.8524    1.1653 H   0  0  0  0  0  0  0  0  0  0  0  0
  1  2  1  0
  2  3  2  0
  3  4  1  0
  2  5  1  0
  5  6  2  0
  6  7  1  0
  7  8  1  0
  8  9  2  0
  9 10  1  0
 10 11  2  0
 11 12  1  0
 12 13  2  0
 13 14  1  0
 14 15  2  0
 15 16  1  0
  7  4  2  0
 16  8  1  0
 16 12  1  0
  3 17  1  0
  4 18  1  0
  5 19  1  0
  6 20  1  0
  9 21  1  0
 10 22  1  0
 14 23  1  0
M  END
