
     RDKit          3D

 28 30  0  0  0  0  0  0  0  0999 V2000
   -6.5785   -1.1732   -1.1098 Cl  0  0  0  0  0  0  0  0  0  0  0  0
   -4.9837   -0.6785   -0.6982 C   0  0  0  0  0  0  0  0  0  0  0  0
   -4.7906    0.4588    0.0819 C   0  0  0  0  0  0  0  0  0  0  0  0
   -3.4933    0.8640    0.4186 C   0  0  0  0  0  0  0  0  0  0  0  0
   -3.8916   -1.4153   -1.1453 C   0  0  0  0  0  0  0  0  0  0  0  0
   -2.5961   -1.0097   -0.8084 C   0  0  0  0  0  0  0  0  0  0  0  0
   -2.3777    0.1346   -0.0224 C   0  0  0  0  0  0  0  0  0  0  0  0
   -1.0152    0.5461    0.3217 C   0  0  0  0  0  0  0  0  0  0  0  0
    0.0687   -0.1334   -0.0871 N   0  0  0  0  0  0  0  0  0  0  0  0
    1.0998    0.5743    0.4419 N   0  0  0  0  0  0  0  0  0  0  0  0
    2.4540    0.1917    0.2472 C   0  0  0  0  0  0  0  0  0  0  0  0
    3.4889    0.9541    0.8135 C   0  0  0  0  0  0  0  0  0  0  0  0
    4.8189    0.5742    0.6196 C   0  0  0  0  0  0  0  0  0  0  0  0
    5.1083   -0.5581   -0.1342 C   0  0  0  0  0  0  0  0  0  0  0  0
    6.3849   -0.9188   -0.3177 F   0  0  0  0  0  0  0  0  0  0  0  0
    4.0935   -1.3221   -0.7006 C   0  0  0  0  0  0  0  0  0  0  0  0
    2.7606   -0.9498   -0.5119 C   0  0  0  0  0  0  0  0  0  0  0  0
    0.7574    1.6691    1.1677 N   0  0  0  0  0  0  0  0  0  0  0  0
   -0.5734    1.6463    1.0886 C   0  0  0  0  0  0  0  0  0  0  0  0
   -5.6433    1.0353    0.4318 H   0  0  0  0  0  0  0  0  0  0  0  0
   -3.3808    1.7563    1.0288 H   0  0  0  0  0  0  0  0  0  0  0  0
   -4.0358   -2.3038   -1.7544 H   0  0  0  0  0  0  0  0  0  0  0  0
   -1.7534   -1.5990   -1.1675 H   0  0  0  0  0  0  0  0  0  0  0  0
    3.2742    1.8422    1.4053 H   0  0  0  0  0  0  0  0  0  0  0  0
    5.6291    1.1537    1.0511 H   0  0  0  0  0  0  0  0  0  0  0  0
    4.3458   -2.2016   -1.2848 H   0  0  0  0  0  0  0  0  0  0  0  0
    1.9747   -1.5552   -0.9599 H   0  0  0  0  0  0  0  0  0  0  0  0
   -1.1454    2.4178    1.5843 H   0  0  0  0  0  0  0  0  0  0  0  0
  1  2  1  0
  2  3  2  0
  3  4  1  0
  2  5  1  0
  5  6  2  0
  6  7  1  0
  7  8  1  0
  8  9  2  0
  9 10  1  0
 10 11  1  0
 11 12  2  0
 12 13  1  0
 13 14  2  0
 14 15  1  0
 14 16  1  0
 16 17  2  0
 10 18  1  0
 18 19  2  0
  7  4  2  0
 19  8  1  0
 17 11  1  0
  3 20  1  0
  4 21  1  0
  5 22  1  0
  6 23  1  0
 12 24  1  0
 13 25  1  0
 16 26  1  0
 17 27  1  0
 19 28  1  0
M  END
