
     RDKit          3D

 32 34  0  0  0  0  0  0  0  0999 V2000
    7.0798    2.6318    0.3739 Cl  0  0  0  0  0  0  0  0  0  0  0  0
    5.6269    1.7124    0.3408 C   0  0  0  0  0  0  0  0  0  0  0  0
    4.4069    2.3501    0.1396 C   0  0  0  0  0  0  0  0  0  0  0  0
    3.2273    1.5989    0.1134 C   0  0  0  0  0  0  0  0  0  0  0  0
    5.6763    0.3317    0.5155 C   0  0  0  0  0  0  0  0  0  0  0  0
    4.4949   -0.4194    0.4891 C   0  0  0  0  0  0  0  0  0  0  0  0
    3.2535    0.2046    0.2875 C   0  0  0  0  0  0  0  0  0  0  0  0
    2.0098   -0.5677    0.2573 C   0  0  0  0  0  0  0  0  0  0  0  0
    0.8099    0.0046    0.0663 N   0  0  0  0  0  0  0  0  0  0  0  0
   -0.0493   -1.0473    0.1092 N   0  0  0  0  0  0  0  0  0  0  0  0
   -1.4500   -0.8818   -0.0521 C   0  0  0  0  0  0  0  0  0  0  0  0
   -1.9896    0.3946   -0.2633 C   0  0  0  0  0  0  0  0  0  0  0  0
   -3.3714    0.5581   -0.4224 C   0  0  0  0  0  0  0  0  0  0  0  0
   -4.2210   -0.5480   -0.3718 C   0  0  0  0  0  0  0  0  0  0  0  0
   -5.5813   -0.5247   -0.5115 O   0  0  0  0  0  0  0  0  0  0  0  0
   -6.1842    0.7448   -0.7282 C   0  0  0  0  0  0  0  0  0  0  0  0
   -3.6786   -1.8189   -0.1610 C   0  0  0  0  0  0  0  0  0  0  0  0
   -2.3010   -1.9923   -0.0011 C   0  0  0  0  0  0  0  0  0  0  0  0
    0.5152   -2.2650    0.3157 N   0  0  0  0  0  0  0  0  0  0  0  0
    1.8090   -1.9570    0.4079 C   0  0  0  0  0  0  0  0  0  0  0  0
    4.3617    3.4273    0.0026 H   0  0  0  0  0  0  0  0  0  0  0  0
    2.2815    2.1150   -0.0452 H   0  0  0  0  0  0  0  0  0  0  0  0
    6.6291   -0.1676    0.6728 H   0  0  0  0  0  0  0  0  0  0  0  0
    4.5715   -1.4944    0.6290 H   0  0  0  0  0  0  0  0  0  0  0  0
   -1.3484    1.2731   -0.3068 H   0  0  0  0  0  0  0  0  0  0  0  0
   -3.7488    1.5625   -0.5838 H   0  0  0  0  0  0  0  0  0  0  0  0
   -7.2639    0.5910   -0.8179 H   0  0  0  0  0  0  0  0  0  0  0  0
   -6.0127    1.4136    0.1217 H   0  0  0  0  0  0  0  0  0  0  0  0
   -5.8332    1.1941   -1.6630 H   0  0  0  0  0  0  0  0  0  0  0  0
   -4.3367   -2.6840   -0.1208 H   0  0  0  0  0  0  0  0  0  0  0  0
   -1.9113   -2.9952    0.1614 H   0  0  0  0  0  0  0  0  0  0  0  0
    2.5286   -2.7453    0.5772 H   0  0  0  0  0  0  0  0  0  0  0  0
  1  2  1  0
  2  3  2  0
  3  4  1  0
  2  5  1  0
  5  6  2  0
  6  7  1  0
  7  8  1  0
  8  9  2  0
  9 10  1  0
 10 11  1  0
 11 12  2  0
 12 13  1  0
 13 14  2  0
 14 15  1  0
 15 16  1  0
 14 17  1  0
 17 18  2  0
 10 19  1  0
 19 20  2  0
  7  4  2  0
 20  8  1  0
 18 11  1  0
  3 21  1  0
  4 22  1  0
  5 23  1  0
  6 24  1  0
 12 25  1  0
 13 26  1  0
 16 27  1  0
 16 28  1  0
 16 29  1  0
 17 30  1  0
 18 31  1  0
 20 32  1  0
M  END
