
     RDKit          3D

 38 40  0  0  0  0  0  0  0  0999 V2000
    7.1310    0.1637    1.8722 Cl  0  0  0  0  0  0  0  0  0  0  0  0
    5.5108   -0.0236    1.3256 C   0  0  0  0  0  0  0  0  0  0  0  0
    4.4543    0.1584    2.2146 C   0  0  0  0  0  0  0  0  0  0  0  0
    3.1373    0.0055    1.7702 C   0  0  0  0  0  0  0  0  0  0  0  0
    2.8696   -0.3194    0.4329 C   0  0  0  0  0  0  0  0  0  0  0  0
    1.5029   -0.5188   -0.0661 C   0  0  0  0  0  0  0  0  0  0  0  0
    0.4501    0.2330    0.2975 C   0  0  0  0  0  0  0  0  0  0  0  0
   -0.8913    0.1590   -0.1023 N   0  0  0  0  0  0  0  0  0  0  0  0
   -1.7258    1.3267    0.0401 C   0  0  0  0  0  0  0  0  0  0  0  0
   -1.2201    2.6213   -0.1802 C   0  0  0  0  0  0  0  0  0  0  0  0
   -2.0346    3.7493   -0.0407 C   0  0  0  0  0  0  0  0  0  0  0  0
   -3.3707    3.6047    0.3225 C   0  0  0  0  0  0  0  0  0  0  0  0
   -3.8942    2.3340    0.5444 C   0  0  0  0  0  0  0  0  0  0  0  0
   -3.0797    1.2066    0.4034 C   0  0  0  0  0  0  0  0  0  0  0  0
   -1.4255   -1.0738   -0.6161 C   0  0  0  0  0  0  0  0  0  0  0  0
   -1.1827   -2.3010    0.0247 C   0  0  0  0  0  0  0  0  0  0  0  0
   -1.7129   -3.4919   -0.4788 C   0  0  0  0  0  0  0  0  0  0  0  0
   -2.4964   -3.4748   -1.6304 C   0  0  0  0  0  0  0  0  0  0  0  0
   -2.7529   -2.2686   -2.2780 C   0  0  0  0  0  0  0  0  0  0  0  0
   -2.2234   -1.0780   -1.7737 C   0  0  0  0  0  0  0  0  0  0  0  0
    3.9450   -0.5155   -0.4445 C   0  0  0  0  0  0  0  0  0  0  0  0
    5.2623   -0.3624   -0.0020 C   0  0  0  0  0  0  0  0  0  0  0  0
    4.6459    0.4130    3.2535 H   0  0  0  0  0  0  0  0  0  0  0  0
    2.3264    0.1320    2.4840 H   0  0  0  0  0  0  0  0  0  0  0  0
    1.3789   -1.3090   -0.8020 H   0  0  0  0  0  0  0  0  0  0  0  0
    0.6102    1.0568    0.9908 H   0  0  0  0  0  0  0  0  0  0  0  0
   -0.1880    2.7629   -0.4911 H   0  0  0  0  0  0  0  0  0  0  0  0
   -1.6241    4.7392   -0.2224 H   0  0  0  0  0  0  0  0  0  0  0  0
   -4.0040    4.4813    0.4310 H   0  0  0  0  0  0  0  0  0  0  0  0
   -4.9359    2.2159    0.8309 H   0  0  0  0  0  0  0  0  0  0  0  0
   -3.5090    0.2268    0.5996 H   0  0  0  0  0  0  0  0  0  0  0  0
   -0.5920   -2.3323    0.9368 H   0  0  0  0  0  0  0  0  0  0  0  0
   -1.5168   -4.4306    0.0326 H   0  0  0  0  0  0  0  0  0  0  0  0
   -2.9089   -4.4010   -2.0220 H   0  0  0  0  0  0  0  0  0  0  0  0
   -3.3630   -2.2513   -3.1772 H   0  0  0  0  0  0  0  0  0  0  0  0
   -2.4233   -0.1466   -2.2985 H   0  0  0  0  0  0  0  0  0  0  0  0
    3.7657   -0.7812   -1.4846 H   0  0  0  0  0  0  0  0  0  0  0  0
    6.0846   -0.5102   -0.6967 H   0  0  0  0  0  0  0  0  0  0  0  0
  1  2  1  0
  2  3  2  0
  3  4  1  0
  4  5  2  0
  5  6  1  0
  6  7  2  0
  7  8  1  0
  8  9  1  0
  9 10  2  0
 10 11  1  0
 11 12  2  0
 12 13  1  0
 13 14  2  0
  8 15  1  0
 15 16  2  0
 16 17  1  0
 17 18  2  0
 18 19  1  0
 19 20  2  0
  5 21  1  0
 21 22  2  0
 22  2  1  0
 14  9  1  0
 20 15  1  0
  3 23  1  0
  4 24  1  0
  6 25  1  0
  7 26  1  0
 10 27  1  0
 11 28  1  0
 12 29  1  0
 13 30  1  0
 14 31  1  0
 16 32  1  0
 17 33  1  0
 18 34  1  0
 19 35  1  0
 20 36  1  0
 21 37  1  0
 22 38  1  0
M  END
