
     RDKit          3D

 39 45  0  0  0  0  0  0  0  0999 V2000
   -5.4789    1.4731    0.3916 Si  0  0  0  0  0  4  0  0  0  0  0  0
   -6.0746    0.4065   -1.1550 C   0  0  0  0  0  0  0  0  0  0  0  0
   -5.0504   -0.2535   -1.7418 C   0  0  0  0  0  0  0  0  0  0  0  0
   -3.8446    0.0222   -1.0626 C   0  0  0  0  0  0  0  0  0  0  0  0
   -2.5924   -0.4461   -1.3409 N   0  0  0  0  0  0  0  0  0  0  0  0
   -1.6869    0.0780   -0.4175 C   0  0  0  0  0  0  0  0  0  0  0  0
   -2.4602    0.8817    0.4215 C   0  0  0  0  0  0  0  0  0  0  0  0
   -3.7743    0.8487    0.0315 C   0  0  0  0  0  0  0  0  0  0  0  0
   -1.8528    1.5891    1.4989 C   0  0  0  0  0  0  0  0  0  0  0  0
   -2.5450    2.3643    2.3210 N   0  0  0  0  0  0  0  0  0  0  0  0
   -1.3606    2.9278    3.3617 S   0  0  0  0  0  0  0  0  0  0  0  0
   -0.0088    2.1708    2.7319 N   0  0  0  0  0  0  0  0  0  0  0  0
   -0.4185    1.4343    1.6736 C   0  0  0  0  0  0  0  0  0  0  0  0
    0.4003    0.6163    0.8288 C   0  0  0  0  0  0  0  0  0  0  0  0
    1.8249    0.5097    1.0615 C   0  0  0  0  0  0  0  0  0  0  0  0
    2.7064   -0.2664    0.2723 C   0  0  0  0  0  0  0  0  0  0  0  0
    4.1321   -0.3392    0.5048 C   0  0  0  0  0  0  0  0  0  0  0  0
    5.2535   -0.4775   -0.2902 C   0  0  0  0  0  0  0  0  0  0  0  0
    6.3752   -0.4629    0.5749 C   0  0  0  0  0  0  0  0  0  0  0  0
    5.8738   -0.3077    1.8442 C   0  0  0  0  0  0  0  0  0  0  0  0
    4.5199   -0.2248    1.8122 O   0  0  0  0  0  0  0  0  0  0  0  0
    2.0201   -0.9333   -0.7524 C   0  0  0  0  0  0  0  0  0  0  0  0
    2.5429   -1.8149   -1.6691 C   0  0  0  0  0  0  0  0  0  0  0  0
    1.5122   -2.2382   -2.4733 N   0  0  0  0  0  0  0  0  0  0  0  0
    0.3274   -1.6563   -2.0751 C   0  0  0  0  0  0  0  0  0  0  0  0
    0.5986   -0.8436   -0.9986 C   0  0  0  0  0  0  0  0  0  0  0  0
   -0.2960   -0.0683   -0.2404 C   0  0  0  0  0  0  0  0  0  0  0  0
   -6.1282    0.9330    1.6133 H   0  0  0  0  0  0  0  0  0  0  0  0
   -5.7250    2.9077    0.0959 H   0  0  0  0  0  0  0  0  0  0  0  0
   -7.1179    0.4123   -1.4246 H   0  0  0  0  0  0  0  0  0  0  0  0
   -5.1419   -0.8985   -2.6055 H   0  0  0  0  0  0  0  0  0  0  0  0
   -2.3602   -1.0698   -2.0971 H   0  0  0  0  0  0  0  0  0  0  0  0
    2.2509    1.0720    1.8957 H   0  0  0  0  0  0  0  0  0  0  0  0
    5.2643   -0.5611   -1.3671 H   0  0  0  0  0  0  0  0  0  0  0  0
    7.4185   -0.5458    0.3060 H   0  0  0  0  0  0  0  0  0  0  0  0
    6.3221   -0.2359    2.8252 H   0  0  0  0  0  0  0  0  0  0  0  0
    3.5405   -2.1993   -1.8272 H   0  0  0  0  0  0  0  0  0  0  0  0
    1.6072   -2.8966   -3.2362 H   0  0  0  0  0  0  0  0  0  0  0  0
   -0.5739   -1.9081   -2.6088 H   0  0  0  0  0  0  0  0  0  0  0  0
  1  2  1  0
  2  3  2  0
  3  4  1  0
  4  5  1  0
  5  6  1  0
  6  7  2  0
  7  8  1  0
  7  9  1  0
  9 10  2  0
 10 11  1  0
 11 12  1  0
 12 13  2  0
 13 14  1  0
 14 15  1  0
 15 16  2  0
 16 17  1  0
 17 18  2  0
 18 19  1  0
 19 20  2  0
 20 21  1  0
 16 22  1  0
 22 23  2  0
 23 24  1  0
 24 25  1  0
 25 26  2  0
 26 27  1  0
  8  1  1  0
 13  9  1  0
 27 14  2  0
  8  4  2  0
 21 17  1  0
 26 22  1  0
 27  6  1  0
  1 28  1  0
  1 29  1  0
  2 30  1  0
  3 31  1  0
  5 32  1  0
 15 33  1  0
 18 34  1  0
 19 35  1  0
 20 36  1  0
 23 37  1  0
 24 38  1  0
 25 39  1  0
M  END
