
     RDKit          3D

 24 26  0  0  0  0  0  0  0  0999 V2000
    5.5182   -0.8125    0.0411 Cl  0  0  0  0  0  0  0  0  0  0  0  0
    3.8786   -0.2972   -0.0259 C   0  0  0  0  0  0  0  0  0  0  0  0
    2.9712   -0.9794   -0.8340 C   0  0  0  0  0  0  0  0  0  0  0  0
    1.6373   -0.5624   -0.8889 C   0  0  0  0  0  0  0  0  0  0  0  0
    1.2020    0.5315   -0.1270 C   0  0  0  0  0  0  0  0  0  0  0  0
    2.1333    1.2193    0.6648 C   0  0  0  0  0  0  0  0  0  0  0  0
    3.4666    0.8033    0.7212 C   0  0  0  0  0  0  0  0  0  0  0  0
   -0.1822    0.9974   -0.1718 C   0  0  0  0  0  0  0  0  0  0  0  0
   -0.5563    2.2538   -0.3501 N   0  0  0  0  0  0  0  0  0  0  0  0
   -1.9300    2.3122   -0.3542 N   0  0  0  0  0  0  0  0  0  0  0  0
   -2.3811    1.0969   -0.1465 C   0  0  0  0  0  0  0  0  0  0  0  0
   -1.3145    0.2195    0.0032 N   0  0  0  0  0  0  0  0  0  0  0  0
   -1.4847   -1.1372    0.2943 C   0  0  0  0  0  0  0  0  0  0  0  0
   -2.7287   -1.6342    0.4079 C   0  0  0  0  0  0  0  0  0  0  0  0
   -3.8649   -0.7439    0.2242 C   0  0  0  0  0  0  0  0  0  0  0  0
   -3.6958    0.5665   -0.0390 C   0  0  0  0  0  0  0  0  0  0  0  0
    3.2970   -1.8273   -1.4310 H   0  0  0  0  0  0  0  0  0  0  0  0
    0.9514   -1.0877   -1.5501 H   0  0  0  0  0  0  0  0  0  0  0  0
    1.8213    2.0895    1.2413 H   0  0  0  0  0  0  0  0  0  0  0  0
    4.1741    1.3463    1.3424 H   0  0  0  0  0  0  0  0  0  0  0  0
   -0.6002   -1.7448    0.4319 H   0  0  0  0  0  0  0  0  0  0  0  0
   -2.9123   -2.6785    0.6390 H   0  0  0  0  0  0  0  0  0  0  0  0
   -4.8616   -1.1669    0.3123 H   0  0  0  0  0  0  0  0  0  0  0  0
   -4.5387    1.2358   -0.1698 H   0  0  0  0  0  0  0  0  0  0  0  0
  1  2  1  0
  2  3  2  0
  3  4  1  0
  4  5  2  0
  5  6  1  0
  6  7  2  0
  5  8  1  0
  8  9  2  0
  9 10  1  0
 10 11  2  0
 11 12  1  0
 12 13  1  0
 13 14  2  0
 14 15  1  0
 15 16  2  0
  7  2  1  0
 12  8  1  0
 16 11  1  0
  3 17  1  0
  4 18  1  0
  6 19  1  0
  7 20  1  0
 13 21  1  0
 14 22  1  0
 15 23  1  0
 16 24  1  0
M  END
