
     RDKit          3D

 30 32  0  0  0  0  0  0  0  0999 V2000
    7.4301    0.3837   -0.3189 Cl  0  0  0  0  0  0  0  0  0  0  0  0
    5.7150    0.3866   -0.1781 C   0  0  0  0  0  0  0  0  0  0  0  0
    5.0949   -0.4560    0.7418 C   0  0  0  0  0  0  0  0  0  0  0  0
    3.7028   -0.4541    0.8560 C   0  0  0  0  0  0  0  0  0  0  0  0
    2.9238    0.3948    0.0545 C   0  0  0  0  0  0  0  0  0  0  0  0
    1.4169    0.3866    0.1677 C   0  0  0  0  0  0  0  0  0  0  0  0
    0.6765   -0.8296   -0.9586 S   0  0  0  0  0  0  0  0  0  0  0  0
   -1.0128   -0.5960   -0.5957 C   0  0  0  0  0  0  0  0  0  0  0  0
   -2.0568   -1.2886   -1.1862 C   0  0  0  0  0  0  0  0  0  0  0  0
   -3.1446   -0.7676   -0.5964 N   0  0  0  0  0  0  0  0  0  0  0  0
   -2.7675    0.1779    0.3044 C   0  0  0  0  0  0  0  0  0  0  0  0
   -1.4687    0.3199    0.3368 N   0  0  0  0  0  0  0  0  0  0  0  0
   -3.9354    0.7652    0.9873 C   0  0  0  0  0  0  0  0  0  0  0  0
   -5.0491   -0.2513    0.6245 C   0  0  0  0  0  0  0  0  0  0  0  0
   -4.5752   -0.9651   -0.6564 C   0  0  0  0  0  0  0  0  0  0  0  0
    3.5637    1.2317   -0.8729 C   0  0  0  0  0  0  0  0  0  0  0  0
    4.9558    1.2294   -0.9867 C   0  0  0  0  0  0  0  0  0  0  0  0
    5.6860   -1.1179    1.3686 H   0  0  0  0  0  0  0  0  0  0  0  0
    3.2262   -1.1220    1.5710 H   0  0  0  0  0  0  0  0  0  0  0  0
    1.0300    1.3870   -0.0592 H   0  0  0  0  0  0  0  0  0  0  0  0
    1.1314    0.1580    1.2012 H   0  0  0  0  0  0  0  0  0  0  0  0
   -2.0839   -2.0641   -1.9376 H   0  0  0  0  0  0  0  0  0  0  0  0
   -4.1636    1.7534    0.5759 H   0  0  0  0  0  0  0  0  0  0  0  0
   -3.8004    0.8428    2.0690 H   0  0  0  0  0  0  0  0  0  0  0  0
   -5.1397   -0.9877    1.4339 H   0  0  0  0  0  0  0  0  0  0  0  0
   -6.0273    0.2237    0.5039 H   0  0  0  0  0  0  0  0  0  0  0  0
   -4.8019   -2.0336   -0.6589 H   0  0  0  0  0  0  0  0  0  0  0  0
   -4.9426   -0.4766   -1.5634 H   0  0  0  0  0  0  0  0  0  0  0  0
    2.9780    1.8869   -1.5148 H   0  0  0  0  0  0  0  0  0  0  0  0
    5.4385    1.8825   -1.7084 H   0  0  0  0  0  0  0  0  0  0  0  0
  1  2  1  0
  2  3  2  0
  3  4  1  0
  4  5  2  0
  5  6  1  0
  6  7  1  0
  7  8  1  0
  8  9  2  0
  9 10  1  0
 10 11  1  0
 11 12  2  0
 11 13  1  0
 13 14  1  0
 14 15  1  0
  5 16  1  0
 16 17  2  0
 17  2  1  0
 12  8  1  0
 15 10  1  0
  3 18  1  0
  4 19  1  0
  6 20  1  0
  6 21  1  0
  9 22  1  0
 13 23  1  0
 13 24  1  0
 14 25  1  0
 14 26  1  0
 15 27  1  0
 15 28  1  0
 16 29  1  0
 17 30  1  0
M  END
