
     RDKit          3D

 44 45  0  0  0  0  0  0  0  0999 V2000
    3.7337    1.5079    1.4719 C   0  0  0  0  0  0  0  0  0  0  0  0
    3.5130    1.4798    0.0331 N   0  0  0  0  0  0  0  0  0  0  0  0
    4.3198    2.4115   -0.7332 C   0  0  0  0  0  0  0  0  0  0  0  0
    3.1679    0.2887   -0.6031 C   0  0  0  0  0  0  0  0  0  0  0  0
    3.6789   -0.0517   -1.6695 O   0  0  0  0  0  0  0  0  0  0  0  0
    2.2136   -0.4934    0.0513 N   0  0  0  0  0  0  0  0  0  0  0  0
    0.9785    0.1461    0.5015 C   0  0  0  0  0  0  0  0  0  0  0  0
    0.2865   -0.6945    1.5701 C   0  0  0  0  0  0  0  0  0  0  0  0
    0.0275   -2.1290    1.0860 C   0  0  0  0  0  0  0  0  0  0  0  0
   -1.1107   -2.1807    0.0670 C   0  0  0  0  0  0  0  0  0  0  0  0
   -0.9525   -2.5207   -1.1003 O   0  0  0  0  0  0  0  0  0  0  0  0
   -2.3347   -1.8157    0.5820 N   0  0  0  0  0  0  0  0  0  0  0  0
   -3.4805   -1.5966   -0.2724 C   0  0  0  0  0  0  0  0  0  0  0  0
   -3.6336   -0.1264   -0.5672 C   0  0  0  0  0  0  0  0  0  0  0  0
   -4.5114    0.6696    0.1819 C   0  0  0  0  0  0  0  0  0  0  0  0
   -4.6207    2.0371   -0.0772 C   0  0  0  0  0  0  0  0  0  0  0  0
   -3.8498    2.6224   -1.0804 C   0  0  0  0  0  0  0  0  0  0  0  0
   -2.9680    1.8424   -1.8258 C   0  0  0  0  0  0  0  0  0  0  0  0
   -2.8586    0.4754   -1.5698 C   0  0  0  0  0  0  0  0  0  0  0  0
    1.3203   -2.7463    0.5336 C   0  0  0  0  0  0  0  0  0  0  0  0
    2.0275   -1.8419   -0.4749 C   0  0  0  0  0  0  0  0  0  0  0  0
    4.7988    1.3426    1.6651 H   0  0  0  0  0  0  0  0  0  0  0  0
    3.1793    0.7304    2.0010 H   0  0  0  0  0  0  0  0  0  0  0  0
    3.4405    2.4891    1.8555 H   0  0  0  0  0  0  0  0  0  0  0  0
    5.3654    2.0892   -0.7087 H   0  0  0  0  0  0  0  0  0  0  0  0
    4.2268    3.4122   -0.3017 H   0  0  0  0  0  0  0  0  0  0  0  0
    3.9810    2.4425   -1.7735 H   0  0  0  0  0  0  0  0  0  0  0  0
    1.1668    1.1510    0.8894 H   0  0  0  0  0  0  0  0  0  0  0  0
    0.3328    0.2767   -0.3761 H   0  0  0  0  0  0  0  0  0  0  0  0
    0.9289   -0.7368    2.4592 H   0  0  0  0  0  0  0  0  0  0  0  0
   -0.6396   -0.1963    1.8755 H   0  0  0  0  0  0  0  0  0  0  0  0
   -0.2989   -2.7376    1.9401 H   0  0  0  0  0  0  0  0  0  0  0  0
   -2.3899   -1.4549    1.5235 H   0  0  0  0  0  0  0  0  0  0  0  0
   -4.3608   -1.9757    0.2582 H   0  0  0  0  0  0  0  0  0  0  0  0
   -3.3908   -2.1653   -1.2046 H   0  0  0  0  0  0  0  0  0  0  0  0
   -5.1182    0.2301    0.9701 H   0  0  0  0  0  0  0  0  0  0  0  0
   -5.3080    2.6473    0.5032 H   0  0  0  0  0  0  0  0  0  0  0  0
   -3.9362    3.6869   -1.2824 H   0  0  0  0  0  0  0  0  0  0  0  0
   -2.3642    2.2968   -2.6073 H   0  0  0  0  0  0  0  0  0  0  0  0
   -2.1612   -0.1239   -2.1545 H   0  0  0  0  0  0  0  0  0  0  0  0
    1.1218   -3.7222    0.0752 H   0  0  0  0  0  0  0  0  0  0  0  0
    2.0016   -2.9258    1.3759 H   0  0  0  0  0  0  0  0  0  0  0  0
    1.4704   -1.7682   -1.4158 H   0  0  0  0  0  0  0  0  0  0  0  0
    3.0072   -2.2721   -0.7157 H   0  0  0  0  0  0  0  0  0  0  0  0
  1  2  1  0
  2  3  1  0
  2  4  1  0
  4  5  2  0
  4  6  1  0
  6  7  1  0
  7  8  1  0
  8  9  1  0
  9 10  1  0
 10 11  2  0
 10 12  1  0
 12 13  1  0
 13 14  1  0
 14 15  2  0
 15 16  1  0
 16 17  2  0
 17 18  1  0
 18 19  2  0
  9 20  1  0
 20 21  1  0
 21  6  1  0
 19 14  1  0
  1 22  1  0
  1 23  1  0
  1 24  1  0
  3 25  1  0
  3 26  1  0
  3 27  1  0
  7 28  1  0
  7 29  1  0
  8 30  1  0
  8 31  1  0
  9 32  1  0
 12 33  1  0
 13 34  1  0
 13 35  1  0
 15 36  1  0
 16 37  1  0
 17 38  1  0
 18 39  1  0
 19 40  1  0
 20 41  1  0
 20 42  1  0
 21 43  1  0
 21 44  1  0
M  END
