
     RDKit          3D

 35 36  0  0  0  0  0  0  0  0999 V2000
   -4.5355    0.1190   -1.4601 C   0  0  0  0  0  0  0  0  0  0  0  0
   -3.8991   -0.5190   -0.3089 N   0  0  0  0  0  0  0  0  0  0  0  0
   -4.7551   -0.7080    0.8607 C   0  0  0  0  0  0  0  0  0  0  0  0
   -2.5191   -0.3655   -0.1272 C   0  0  0  0  0  0  0  0  0  0  0  0
   -1.6672    0.0382   -1.1723 C   0  0  0  0  0  0  0  0  0  0  0  0
   -0.2702    0.1886   -1.0185 C   0  0  0  0  0  0  0  0  0  0  0  0
    0.5506    0.6257   -2.2034 C   0  0  0  0  0  0  0  0  0  0  0  0
    0.3245   -0.0944    0.2229 C   0  0  0  0  0  0  0  0  0  0  0  0
    1.7693    0.0247    0.4549 C   0  0  0  0  0  0  0  0  0  0  0  0
    2.6413   -1.0143    0.0930 C   0  0  0  0  0  0  0  0  0  0  0  0
    4.0159   -0.9030    0.3161 C   0  0  0  0  0  0  0  0  0  0  0  0
    4.5300    0.2526    0.9079 C   0  0  0  0  0  0  0  0  0  0  0  0
    5.9811    0.3822    1.1483 C   0  0  0  0  0  0  0  0  0  0  0  0
    6.7753   -0.4983    0.8426 O   0  0  0  0  0  0  0  0  0  0  0  0
    3.6786    1.2956    1.2784 C   0  0  0  0  0  0  0  0  0  0  0  0
    2.3042    1.1778    1.0523 C   0  0  0  0  0  0  0  0  0  0  0  0
   -0.5045   -0.5124    1.2698 C   0  0  0  0  0  0  0  0  0  0  0  0
   -1.8890   -0.6476    1.0936 C   0  0  0  0  0  0  0  0  0  0  0  0
   -5.6191   -0.0450   -1.4586 H   0  0  0  0  0  0  0  0  0  0  0  0
   -4.1700   -0.3063   -2.4009 H   0  0  0  0  0  0  0  0  0  0  0  0
   -4.3670    1.2016   -1.4542 H   0  0  0  0  0  0  0  0  0  0  0  0
   -4.6995    0.1553    1.5330 H   0  0  0  0  0  0  0  0  0  0  0  0
   -4.4864   -1.6189    1.4065 H   0  0  0  0  0  0  0  0  0  0  0  0
   -5.8039   -0.8334    0.5689 H   0  0  0  0  0  0  0  0  0  0  0  0
   -2.0808    0.2434   -2.1556 H   0  0  0  0  0  0  0  0  0  0  0  0
    1.1844   -0.1968   -2.5495 H   0  0  0  0  0  0  0  0  0  0  0  0
   -0.0850    0.9320   -3.0411 H   0  0  0  0  0  0  0  0  0  0  0  0
    1.1750    1.4868   -1.9448 H   0  0  0  0  0  0  0  0  0  0  0  0
    2.2476   -1.9193   -0.3667 H   0  0  0  0  0  0  0  0  0  0  0  0
    4.6787   -1.7167    0.0289 H   0  0  0  0  0  0  0  0  0  0  0  0
    6.3195    1.3195    1.6209 H   0  0  0  0  0  0  0  0  0  0  0  0
    4.0658    2.1999    1.7402 H   0  0  0  0  0  0  0  0  0  0  0  0
    1.6428    1.9933    1.3405 H   0  0  0  0  0  0  0  0  0  0  0  0
   -0.0756   -0.7490    2.2418 H   0  0  0  0  0  0  0  0  0  0  0  0
   -2.4575   -0.9881    1.9531 H   0  0  0  0  0  0  0  0  0  0  0  0
  1  2  1  0
  2  3  1  0
  2  4  1  0
  4  5  2  0
  5  6  1  0
  6  7  1  0
  6  8  2  0
  8  9  1  0
  9 10  2  0
 10 11  1  0
 11 12  2  0
 12 13  1  0
 13 14  2  0
 12 15  1  0
 15 16  2  0
  8 17  1  0
 17 18  2  0
 18  4  1  0
 16  9  1  0
  1 19  1  0
  1 20  1  0
  1 21  1  0
  3 22  1  0
  3 23  1  0
  3 24  1  0
  5 25  1  0
  7 26  1  0
  7 27  1  0
  7 28  1  0
 10 29  1  0
 11 30  1  0
 13 31  1  0
 15 32  1  0
 16 33  1  0
 17 34  1  0
 18 35  1  0
M  END
