
     RDKit          3D

 41 43  0  0  0  0  0  0  0  0999 V2000
   -4.2893    1.9451   -2.7284 C   0  0  0  0  0  0  0  0  0  0  0  0
   -3.8296    0.7723   -1.9863 N   0  0  0  0  0  0  0  0  0  0  0  0
   -4.8577    0.0677   -1.2225 C   0  0  0  0  0  0  0  0  0  0  0  0
   -2.5008    0.7350   -1.5380 C   0  0  0  0  0  0  0  0  0  0  0  0
   -1.5033    1.5719   -2.0988 C   0  0  0  0  0  0  0  0  0  0  0  0
   -0.1605    1.5501   -1.6858 C   0  0  0  0  0  0  0  0  0  0  0  0
    0.2114    0.6664   -0.6949 C   0  0  0  0  0  0  0  0  0  0  0  0
    1.4972    0.4215   -0.0798 C   0  0  0  0  0  0  0  0  0  0  0  0
    2.7291    1.0131   -0.3055 C   0  0  0  0  0  0  0  0  0  0  0  0
    3.8313    0.5789    0.4430 C   0  0  0  0  0  0  0  0  0  0  0  0
    3.6964   -0.4410    1.4097 C   0  0  0  0  0  0  0  0  0  0  0  0
    4.8484   -0.9237    2.2210 C   0  0  0  0  0  0  0  0  0  0  0  0
    6.1517   -0.3311    2.0086 C   0  0  0  0  0  0  0  0  0  0  0  0
    7.2424    0.1472    1.8481 C   0  0  0  0  0  0  0  0  0  0  0  0
    4.7257   -1.8054    3.0609 O   0  0  0  0  0  0  0  0  0  0  0  0
    2.4440   -1.0352    1.6317 C   0  0  0  0  0  0  0  0  0  0  0  0
    1.3571   -0.5984    0.8850 C   0  0  0  0  0  0  0  0  0  0  0  0
   -0.0957   -1.0804    0.9365 C   0  0  0  0  0  0  0  0  0  0  0  0
   -0.7099   -0.8261    2.3177 C   0  0  0  0  0  0  0  0  0  0  0  0
   -0.1967   -2.5610    0.5527 C   0  0  0  0  0  0  0  0  0  0  0  0
   -0.7456   -0.1907   -0.1263 C   0  0  0  0  0  0  0  0  0  0  0  0
   -2.0768   -0.1650   -0.5407 C   0  0  0  0  0  0  0  0  0  0  0  0
   -3.7646    2.0393   -3.6851 H   0  0  0  0  0  0  0  0  0  0  0  0
   -4.1556    2.8608   -2.1418 H   0  0  0  0  0  0  0  0  0  0  0  0
   -5.3536    1.8670   -2.9777 H   0  0  0  0  0  0  0  0  0  0  0  0
   -4.6538   -1.0076   -1.1800 H   0  0  0  0  0  0  0  0  0  0  0  0
   -5.8409    0.1663   -1.6964 H   0  0  0  0  0  0  0  0  0  0  0  0
   -4.9382    0.4691   -0.2063 H   0  0  0  0  0  0  0  0  0  0  0  0
   -1.7516    2.2701   -2.8927 H   0  0  0  0  0  0  0  0  0  0  0  0
    0.5591    2.2155   -2.1499 H   0  0  0  0  0  0  0  0  0  0  0  0
    2.8469    1.7981   -1.0457 H   0  0  0  0  0  0  0  0  0  0  0  0
    4.7922    1.0517    0.2559 H   0  0  0  0  0  0  0  0  0  0  0  0
    8.2152    0.5615    1.7170 H   0  0  0  0  0  0  0  0  0  0  0  0
    2.3255   -1.8219    2.3725 H   0  0  0  0  0  0  0  0  0  0  0  0
   -0.1995   -1.4072    3.0945 H   0  0  0  0  0  0  0  0  0  0  0  0
   -1.7700   -1.1039    2.3405 H   0  0  0  0  0  0  0  0  0  0  0  0
   -0.6424    0.2311    2.6023 H   0  0  0  0  0  0  0  0  0  0  0  0
    0.3306   -3.1968    1.2732 H   0  0  0  0  0  0  0  0  0  0  0  0
   -1.2402   -2.8946    0.5195 H   0  0  0  0  0  0  0  0  0  0  0  0
    0.2401   -2.7538   -0.4349 H   0  0  0  0  0  0  0  0  0  0  0  0
   -2.7680   -0.8561   -0.0727 H   0  0  0  0  0  0  0  0  0  0  0  0
  1  2  1  0
  2  3  1  0
  2  4  1  0
  4  5  2  0
  5  6  1  0
  6  7  2  0
  7  8  1  0
  8  9  2  0
  9 10  1  0
 10 11  2  0
 11 12  1  0
 12 13  1  0
 13 14  3  0
 12 15  2  0
 11 16  1  0
  8 17  1  0
 17 18  1  0
 18 19  1  0
 18 20  1  0
  7 21  1  0
 21 22  2  0
 22  4  1  0
 17 16  2  0
 21 18  1  0
  1 23  1  0
  1 24  1  0
  1 25  1  0
  3 26  1  0
  3 27  1  0
  3 28  1  0
  5 29  1  0
  6 30  1  0
  9 31  1  0
 10 32  1  0
 14 33  1  0
 16 34  1  0
 19 35  1  0
 19 36  1  0
 19 37  1  0
 20 38  1  0
 20 39  1  0
 20 40  1  0
 22 41  1  0
M  END
