
     RDKit          3D

 31 32  0  0  0  0  0  0  0  0999 V2000
   -4.1481    0.1413   -1.9325 C   0  0  0  0  0  0  0  0  0  0  0  0
   -3.6253    0.3763   -0.5877 N   0  0  0  0  0  0  0  0  0  0  0  0
   -4.3736    1.3375    0.2206 C   0  0  0  0  0  0  0  0  0  0  0  0
   -2.2542    0.2160   -0.3555 C   0  0  0  0  0  0  0  0  0  0  0  0
   -1.4178   -0.4687   -1.2526 C   0  0  0  0  0  0  0  0  0  0  0  0
   -0.0447   -0.6477   -1.0154 C   0  0  0  0  0  0  0  0  0  0  0  0
    0.5602   -0.1542    0.1437 C   0  0  0  0  0  0  0  0  0  0  0  0
    1.9979   -0.3391    0.3968 C   0  0  0  0  0  0  0  0  0  0  0  0
    2.8268    0.7604    0.6902 C   0  0  0  0  0  0  0  0  0  0  0  0
    4.1925    0.5900    0.9306 C   0  0  0  0  0  0  0  0  0  0  0  0
    4.7342   -0.6906    0.8785 C   0  0  0  0  0  0  0  0  0  0  0  0
    6.0903   -0.8647    1.1171 N   0  0  0  0  0  4  0  0  0  0  0  0
    7.2356   -1.0114    1.3184 C   0  0  0  0  0  3  0  0  0  0  0  0
    3.9451   -1.8002    0.5923 C   0  0  0  0  0  0  0  0  0  0  0  0
    2.5806   -1.6199    0.3522 C   0  0  0  0  0  0  0  0  0  0  0  0
   -0.2590    0.5164    1.0560 C   0  0  0  0  0  0  0  0  0  0  0  0
   -1.6316    0.6892    0.8115 C   0  0  0  0  0  0  0  0  0  0  0  0
   -3.9977   -0.8989   -2.2405 H   0  0  0  0  0  0  0  0  0  0  0  0
   -5.2299    0.3120   -1.9741 H   0  0  0  0  0  0  0  0  0  0  0  0
   -3.6798    0.8132   -2.6603 H   0  0  0  0  0  0  0  0  0  0  0  0
   -5.4297    1.3650   -0.0707 H   0  0  0  0  0  0  0  0  0  0  0  0
   -4.3630    1.0586    1.2797 H   0  0  0  0  0  0  0  0  0  0  0  0
   -3.9717    2.3498    0.1014 H   0  0  0  0  0  0  0  0  0  0  0  0
   -1.8108   -0.8904   -2.1725 H   0  0  0  0  0  0  0  0  0  0  0  0
    0.5467   -1.1755   -1.7607 H   0  0  0  0  0  0  0  0  0  0  0  0
    2.4081    1.7651    0.7205 H   0  0  0  0  0  0  0  0  0  0  0  0
    4.8202    1.4485    1.1522 H   0  0  0  0  0  0  0  0  0  0  0  0
    4.3796   -2.7954    0.5581 H   0  0  0  0  0  0  0  0  0  0  0  0
    1.9635   -2.4917    0.1404 H   0  0  0  0  0  0  0  0  0  0  0  0
    0.1560    0.9023    1.9848 H   0  0  0  0  0  0  0  0  0  0  0  0
   -2.2001    1.2067    1.5780 H   0  0  0  0  0  0  0  0  0  0  0  0
  1  2  1  0
  2  3  1  0
  2  4  1  0
  4  5  2  0
  5  6  1  0
  6  7  2  0
  7  8  1  0
  8  9  2  0
  9 10  1  0
 10 11  2  0
 11 12  1  0
 12 13  3  0
 11 14  1  0
 14 15  2  0
  7 16  1  0
 16 17  2  0
 17  4  1  0
 15  8  1  0
  1 18  1  0
  1 19  1  0
  1 20  1  0
  3 21  1  0
  3 22  1  0
  3 23  1  0
  5 24  1  0
  6 25  1  0
  9 26  1  0
 10 27  1  0
 14 28  1  0
 15 29  1  0
 16 30  1  0
 17 31  1  0
M  CHG  2  12   1  13  -1
M  END
