
     RDKit          3D

 32 33  0  0  0  0  0  0  0  0999 V2000
   -4.4958   -1.4410   -0.7608 C   0  0  0  0  0  0  0  0  0  0  0  0
   -3.8752   -0.1653   -0.4085 N   0  0  0  0  0  0  0  0  0  0  0  0
   -4.6992    0.7376    0.3932 C   0  0  0  0  0  0  0  0  0  0  0  0
   -2.4820   -0.0976   -0.2913 C   0  0  0  0  0  0  0  0  0  0  0  0
   -1.6377   -1.0938   -0.8092 C   0  0  0  0  0  0  0  0  0  0  0  0
   -0.2382   -1.0225   -0.7081 C   0  0  0  0  0  0  0  0  0  0  0  0
    0.3890    0.0629   -0.0904 C   0  0  0  0  0  0  0  0  0  0  0  0
    1.8544    0.1423    0.0171 C   0  0  0  0  0  0  0  0  0  0  0  0
    2.5530    1.2737   -0.4391 C   0  0  0  0  0  0  0  0  0  0  0  0
    3.9451    1.3520   -0.3368 C   0  0  0  0  0  0  0  0  0  0  0  0
    4.6587    0.2939    0.2271 C   0  0  0  0  0  0  0  0  0  0  0  0
    6.1290    0.3651    0.3422 C   0  0  0  0  0  0  0  0  0  0  0  0
    6.7680    1.3365   -0.0421 O   0  0  0  0  0  0  0  0  0  0  0  0
    3.9891   -0.8405    0.6874 C   0  0  0  0  0  0  0  0  0  0  0  0
    2.5961   -0.9116    0.5805 C   0  0  0  0  0  0  0  0  0  0  0  0
   -0.4341    1.0729    0.4152 C   0  0  0  0  0  0  0  0  0  0  0  0
   -1.8328    0.9927    0.3113 C   0  0  0  0  0  0  0  0  0  0  0  0
   -4.2578   -2.2127   -0.0204 H   0  0  0  0  0  0  0  0  0  0  0  0
   -4.1805   -1.7743   -1.7553 H   0  0  0  0  0  0  0  0  0  0  0  0
   -5.5872   -1.3533   -0.8068 H   0  0  0  0  0  0  0  0  0  0  0  0
   -5.7665    0.5737    0.2058 H   0  0  0  0  0  0  0  0  0  0  0  0
   -4.5078    1.7845    0.1344 H   0  0  0  0  0  0  0  0  0  0  0  0
   -4.5246    0.5841    1.4638 H   0  0  0  0  0  0  0  0  0  0  0  0
   -2.0445   -1.9616   -1.3190 H   0  0  0  0  0  0  0  0  0  0  0  0
    0.3553   -1.8259   -1.1395 H   0  0  0  0  0  0  0  0  0  0  0  0
    2.0131    2.1034   -0.8925 H   0  0  0  0  0  0  0  0  0  0  0  0
    4.4656    2.2361   -0.6995 H   0  0  0  0  0  0  0  0  0  0  0  0
    6.6297   -0.5067    0.7957 H   0  0  0  0  0  0  0  0  0  0  0  0
    4.5310   -1.6711    1.1316 H   0  0  0  0  0  0  0  0  0  0  0  0
    2.0837   -1.7968    0.9542 H   0  0  0  0  0  0  0  0  0  0  0  0
    0.0015    1.9401    0.9073 H   0  0  0  0  0  0  0  0  0  0  0  0
   -2.3985    1.8232    0.7218 H   0  0  0  0  0  0  0  0  0  0  0  0
  1  2  1  0
  2  3  1  0
  2  4  1  0
  4  5  2  0
  5  6  1  0
  6  7  2  0
  7  8  1  0
  8  9  2  0
  9 10  1  0
 10 11  2  0
 11 12  1  0
 12 13  2  0
 11 14  1  0
 14 15  2  0
  7 16  1  0
 16 17  2  0
 17  4  1  0
 15  8  1  0
  1 18  1  0
  1 19  1  0
  1 20  1  0
  3 21  1  0
  3 22  1  0
  3 23  1  0
  5 24  1  0
  6 25  1  0
  9 26  1  0
 10 27  1  0
 12 28  1  0
 14 29  1  0
 15 30  1  0
 16 31  1  0
 17 32  1  0
M  END
