
     RDKit          3D

 32 33  0  0  0  0  0  0  0  0999 V2000
   -3.8771   -1.9743    0.1218 C   0  0  0  0  0  0  0  0  0  0  0  0
   -3.5653   -0.6378    0.6277 N   0  0  0  0  0  0  0  0  0  0  0  0
   -4.7049    0.2703    0.7446 C   0  0  0  0  0  0  0  0  0  0  0  0
   -2.2916   -0.1086    0.3782 C   0  0  0  0  0  0  0  0  0  0  0  0
   -2.0276    1.2695    0.4345 C   0  0  0  0  0  0  0  0  0  0  0  0
   -0.7508    1.7993    0.1998 C   0  0  0  0  0  0  0  0  0  0  0  0
    0.3287    0.9614   -0.0899 C   0  0  0  0  0  0  0  0  0  0  0  0
    0.1115   -0.4287   -0.1404 C   0  0  0  0  0  0  0  0  0  0  0  0
    1.1917   -1.2797   -0.4324 C   0  0  0  0  0  0  0  0  0  0  0  0
    2.4694   -0.7642   -0.6652 C   0  0  0  0  0  0  0  0  0  0  0  0
    2.6856    0.6138   -0.5928 C   0  0  0  0  0  0  0  0  0  0  0  0
    4.0170    1.2102   -0.8511 C   0  0  0  0  0  0  0  0  0  0  0  0
    5.2537    0.5752   -0.3209 C   0  0  0  0  0  0  0  0  0  0  0  0
    5.3266   -0.2040    0.7655 C   0  0  0  0  0  0  0  0  0  0  0  0
    4.1078    2.2440   -1.5074 O   0  0  0  0  0  0  0  0  0  0  0  0
    1.6147    1.4741   -0.3256 C   0  0  0  0  0  0  0  0  0  0  0  0
   -1.1847   -0.9337    0.0983 C   0  0  0  0  0  0  0  0  0  0  0  0
   -4.9227   -2.2400    0.3149 H   0  0  0  0  0  0  0  0  0  0  0  0
   -3.7180   -2.0339   -0.9607 H   0  0  0  0  0  0  0  0  0  0  0  0
   -3.2760   -2.7386    0.6255 H   0  0  0  0  0  0  0  0  0  0  0  0
   -4.5598    0.9878    1.5595 H   0  0  0  0  0  0  0  0  0  0  0  0
   -4.8787    0.8074   -0.1944 H   0  0  0  0  0  0  0  0  0  0  0  0
   -5.6222   -0.2772    0.9892 H   0  0  0  0  0  0  0  0  0  0  0  0
   -2.8147    1.9825    0.6599 H   0  0  0  0  0  0  0  0  0  0  0  0
   -0.6149    2.8775    0.2504 H   0  0  0  0  0  0  0  0  0  0  0  0
    1.0404   -2.3558   -0.4893 H   0  0  0  0  0  0  0  0  0  0  0  0
    3.2777   -1.4457   -0.9158 H   0  0  0  0  0  0  0  0  0  0  0  0
    6.1577    0.8581   -0.8529 H   0  0  0  0  0  0  0  0  0  0  0  0
    4.4615   -0.4579    1.3692 H   0  0  0  0  0  0  0  0  0  0  0  0
    6.2871   -0.5874    1.0971 H   0  0  0  0  0  0  0  0  0  0  0  0
    1.7893    2.5486   -0.2998 H   0  0  0  0  0  0  0  0  0  0  0  0
   -1.3110   -2.0120    0.0693 H   0  0  0  0  0  0  0  0  0  0  0  0
  1  2  1  0
  2  3  1  0
  2  4  1  0
  4  5  2  0
  5  6  1  0
  6  7  2  0
  7  8  1  0
  8  9  1  0
  9 10  2  0
 10 11  1  0
 11 12  1  0
 12 13  1  0
 13 14  2  0
 12 15  2  0
 11 16  2  0
  8 17  2  0
 17  4  1  0
 16  7  1  0
  1 18  1  0
  1 19  1  0
  1 20  1  0
  3 21  1  0
  3 22  1  0
  3 23  1  0
  5 24  1  0
  6 25  1  0
  9 26  1  0
 10 27  1  0
 13 28  1  0
 14 29  1  0
 14 30  1  0
 16 31  1  0
 17 32  1  0
M  END
