
     RDKit          3D

 39 40  0  0  0  0  0  0  0  0999 V2000
    4.6112   -0.2290   -0.0410 C   0  0  0  0  0  0  0  0  0  0  0  0
    3.4370   -0.7162    0.6894 N   0  0  0  0  0  0  0  0  0  0  0  0
    3.6134   -2.0301    1.3099 C   0  0  0  0  0  0  0  0  0  0  0  0
    2.2635   -0.6083   -0.1085 C   0  0  0  0  0  0  0  0  0  0  0  0
    1.9954   -1.5397   -1.1224 C   0  0  0  0  0  0  0  0  0  0  0  0
    0.8647   -1.4160   -1.9155 C   0  0  0  0  0  0  0  0  0  0  0  0
   -0.0168   -0.3571   -1.7075 C   0  0  0  0  0  0  0  0  0  0  0  0
    0.1956    0.6167   -0.6998 C   0  0  0  0  0  0  0  0  0  0  0  0
   -0.6719    1.7174   -0.4324 C   0  0  0  0  0  0  0  0  0  0  0  0
   -2.1846    1.9726   -1.3399 S   0  0  0  0  0  6  0  0  0  0  0  0
   -1.8818    1.9438   -2.7533 O   0  0  0  0  0  0  0  0  0  0  0  0
   -3.0632    0.5806   -1.0072 N   0  0  0  0  0  0  0  0  0  0  0  0
   -3.7580    0.4833    0.2850 C   0  0  0  0  0  0  0  0  0  0  0  0
   -3.9007   -0.9928    0.6940 C   0  0  0  0  0  0  0  0  0  0  0  0
   -4.4987   -1.8355   -0.3476 N   0  0  0  0  0  0  0  0  0  0  0  0
   -2.9146    3.0771   -0.7545 O   0  0  0  0  0  0  0  0  0  0  0  0
   -0.3871    2.6521    0.5750 C   0  0  0  0  0  0  0  0  0  0  0  0
    0.7526    2.5089    1.3483 C   0  0  0  0  0  0  0  0  0  0  0  0
    1.6072    1.4354    1.1149 C   0  0  0  0  0  0  0  0  0  0  0  0
    1.3632    0.4794    0.1032 C   0  0  0  0  0  0  0  0  0  0  0  0
    5.4769   -0.1992    0.6297 H   0  0  0  0  0  0  0  0  0  0  0  0
    4.8623   -0.8770   -0.8887 H   0  0  0  0  0  0  0  0  0  0  0  0
    4.4539    0.7914   -0.4095 H   0  0  0  0  0  0  0  0  0  0  0  0
    4.3990   -1.9704    2.0712 H   0  0  0  0  0  0  0  0  0  0  0  0
    2.6969   -2.3521    1.8176 H   0  0  0  0  0  0  0  0  0  0  0  0
    3.9104   -2.7967    0.5858 H   0  0  0  0  0  0  0  0  0  0  0  0
    2.6789   -2.3612   -1.3146 H   0  0  0  0  0  0  0  0  0  0  0  0
    0.6708   -2.1377   -2.7046 H   0  0  0  0  0  0  0  0  0  0  0  0
   -0.8773   -0.3065   -2.3692 H   0  0  0  0  0  0  0  0  0  0  0  0
   -3.5278    0.2061   -1.8314 H   0  0  0  0  0  0  0  0  0  0  0  0
   -4.7489    0.9400    0.1858 H   0  0  0  0  0  0  0  0  0  0  0  0
   -3.2076    1.0106    1.0707 H   0  0  0  0  0  0  0  0  0  0  0  0
   -2.9139   -1.4025    0.9386 H   0  0  0  0  0  0  0  0  0  0  0  0
   -4.5119   -1.0590    1.6002 H   0  0  0  0  0  0  0  0  0  0  0  0
   -5.3558   -1.4052   -0.6909 H   0  0  0  0  0  0  0  0  0  0  0  0
   -3.8557   -1.8811   -1.1368 H   0  0  0  0  0  0  0  0  0  0  0  0
   -1.0502    3.4935    0.7658 H   0  0  0  0  0  0  0  0  0  0  0  0
    0.9804    3.2251    2.1333 H   0  0  0  0  0  0  0  0  0  0  0  0
    2.4931    1.3396    1.7420 H   0  0  0  0  0  0  0  0  0  0  0  0
  1  2  1  0
  2  3  1  0
  2  4  1  0
  4  5  2  0
  5  6  1  0
  6  7  2  0
  7  8  1  0
  8  9  2  0
  9 10  1  0
 10 11  2  0
 10 12  1  0
 12 13  1  0
 13 14  1  0
 14 15  1  0
 10 16  2  0
  9 17  1  0
 17 18  2  0
 18 19  1  0
 19 20  2  0
 20  4  1  0
 20  8  1  0
  1 21  1  0
  1 22  1  0
  1 23  1  0
  3 24  1  0
  3 25  1  0
  3 26  1  0
  5 27  1  0
  6 28  1  0
  7 29  1  0
 12 30  1  0
 13 31  1  0
 13 32  1  0
 14 33  1  0
 14 34  1  0
 15 35  1  0
 15 36  1  0
 17 37  1  0
 18 38  1  0
 19 39  1  0
M  END
