
     RDKit          3D

 37 42  0  0  0  0  0  0  0  0999 V2000
   -4.8749   -1.5574   -1.4584 Si  0  0  0  0  0  4  0  0  0  0  0  0
   -6.4338   -0.7893   -0.6451 C   0  0  0  0  0  0  0  0  0  0  0  0
   -6.1021    0.1123    0.3040 C   0  0  0  0  0  0  0  0  0  0  0  0
   -4.6757    0.2638    0.4606 C   0  0  0  0  0  0  0  0  0  0  0  0
   -3.8905   -0.4999   -0.3456 C   0  0  0  0  0  0  0  0  0  0  0  0
   -2.5322   -0.2604   -0.0980 C   0  0  0  0  0  0  0  0  0  0  0  0
   -1.4187   -0.7901   -0.6653 N   0  0  0  0  0  0  0  0  0  0  0  0
   -0.3021   -0.2159   -0.0632 C   0  0  0  0  0  0  0  0  0  0  0  0
    1.0599   -0.4442   -0.3101 C   0  0  0  0  0  0  0  0  0  0  0  0
    2.0187    0.2727    0.4310 C   0  0  0  0  0  0  0  0  0  0  0  0
    1.5767    1.1925    1.3970 C   0  0  0  0  0  0  0  0  0  0  0  0
    0.2139    1.4177    1.6436 C   0  0  0  0  0  0  0  0  0  0  0  0
   -0.7422    0.7038    0.9050 C   0  0  0  0  0  0  0  0  0  0  0  0
   -2.1307    0.6477    0.8558 C   0  0  0  0  0  0  0  0  0  0  0  0
   -3.6839    1.3779    1.6282 Si  0  0  0  0  0  4  0  0  0  0  0  0
    3.4552    0.0511    0.2198 C   0  0  0  0  0  0  0  0  0  0  0  0
    4.3486   -0.2391    1.2838 C   0  0  0  0  0  0  0  0  0  0  0  0
    5.7378   -0.4548    1.1201 C   0  0  0  0  0  0  0  0  0  0  0  0
    6.3759   -0.4001   -0.1273 C   0  0  0  0  0  0  0  0  0  0  0  0
    5.5488   -0.1141   -1.2385 C   0  0  0  0  0  0  0  0  0  0  0  0
    5.9671   -0.0178   -2.5100 N   0  0  0  0  0  0  0  0  0  0  0  0
    4.6270    0.3416   -3.4185 S   0  0  0  0  0  0  0  0  0  0  0  0
    3.4559    0.3776   -2.2475 N   0  0  0  0  0  0  0  0  0  0  0  0
    4.0607    0.1164   -1.0735 C   0  0  0  0  0  0  0  0  0  0  0  0
   -4.7742   -3.0100   -1.1678 H   0  0  0  0  0  0  0  0  0  0  0  0
   -4.7788   -1.1920   -2.8941 H   0  0  0  0  0  0  0  0  0  0  0  0
   -7.4218   -1.0872   -0.9575 H   0  0  0  0  0  0  0  0  0  0  0  0
   -6.8222    0.6684    0.8906 H   0  0  0  0  0  0  0  0  0  0  0  0
   -1.3807   -1.4794   -1.4024 H   0  0  0  0  0  0  0  0  0  0  0  0
    1.3653   -1.1647   -1.0638 H   0  0  0  0  0  0  0  0  0  0  0  0
    2.3010    1.7662    1.9729 H   0  0  0  0  0  0  0  0  0  0  0  0
   -0.0902    2.1401    2.3946 H   0  0  0  0  0  0  0  0  0  0  0  0
   -3.8934    2.8190    1.3295 H   0  0  0  0  0  0  0  0  0  0  0  0
   -3.8860    1.0046    3.0531 H   0  0  0  0  0  0  0  0  0  0  0  0
    3.9444   -0.3149    2.2955 H   0  0  0  0  0  0  0  0  0  0  0  0
    6.3373   -0.6755    2.0038 H   0  0  0  0  0  0  0  0  0  0  0  0
    7.4402   -0.5665   -0.2414 H   0  0  0  0  0  0  0  0  0  0  0  0
  1  2  1  0
  2  3  2  0
  3  4  1  0
  4  5  2  0
  5  6  1  0
  6  7  1  0
  7  8  1  0
  8  9  2  0
  9 10  1  0
 10 11  2  0
 11 12  1  0
 12 13  2  0
 13 14  1  0
 14 15  1  0
 10 16  1  0
 16 17  2  0
 17 18  1  0
 18 19  2  0
 19 20  1  0
 20 21  2  0
 21 22  1  0
 22 23  1  0
 23 24  2  0
  5  1  1  0
 14  6  2  0
 24 16  1  0
 15  4  1  0
 24 20  1  0
 13  8  1  0
  1 25  1  0
  1 26  1  0
  2 27  1  0
  3 28  1  0
  7 29  1  0
  9 30  1  0
 11 31  1  0
 12 32  1  0
 15 33  1  0
 15 34  1  0
 17 35  1  0
 18 36  1  0
 19 37  1  0
M  END
