
     RDKit          3D

 31 34  0  0  0  0  0  0  0  0999 V2000
   -4.4198   -0.7296   -0.4456 C   0  0  0  0  0  0  0  0  0  0  0  0
   -3.3365    0.0939    0.0895 N   0  0  0  0  0  0  0  0  0  0  0  0
   -3.6231    1.5249    0.1865 C   0  0  0  0  0  0  0  0  0  0  0  0
   -2.0060   -0.3202   -0.0872 C   0  0  0  0  0  0  0  0  0  0  0  0
   -0.9250    0.5363    0.2203 C   0  0  0  0  0  0  0  0  0  0  0  0
    0.3716    0.0867    0.0499 C   0  0  0  0  0  0  0  0  0  0  0  0
    0.6416   -1.2435   -0.4259 C   0  0  0  0  0  0  0  0  0  0  0  0
    2.0793   -1.4113   -0.4940 C   0  0  0  0  0  0  0  0  0  0  0  0
    3.0418   -2.2479   -0.7988 N   0  0  0  0  0  0  0  0  0  0  0  0
    4.2223   -1.5110   -0.5401 C   0  0  0  0  0  0  0  0  0  0  0  0
    3.9406   -0.2337   -0.0810 C   0  0  0  0  0  0  0  0  0  0  0  0
    2.5929   -0.2387   -0.0765 N   0  0  0  0  0  0  0  0  0  0  0  0
    1.6844    0.7308    0.2752 C   0  0  0  0  0  0  0  0  0  0  0  0
    2.1991    1.8989    0.6920 C   0  0  0  0  0  0  0  0  0  0  0  0
    3.6796    2.0072    0.7242 C   0  0  0  0  0  0  0  0  0  0  0  0
    4.5115    0.9932    0.3565 C   0  0  0  0  0  0  0  0  0  0  0  0
   -0.3784   -2.1090   -0.7202 C   0  0  0  0  0  0  0  0  0  0  0  0
   -1.6903   -1.6375   -0.5416 C   0  0  0  0  0  0  0  0  0  0  0  0
   -4.4253   -1.7244    0.0127 H   0  0  0  0  0  0  0  0  0  0  0  0
   -5.3992   -0.2925   -0.2203 H   0  0  0  0  0  0  0  0  0  0  0  0
   -4.3424   -0.8235   -1.5344 H   0  0  0  0  0  0  0  0  0  0  0  0
   -3.2729    2.0581   -0.7044 H   0  0  0  0  0  0  0  0  0  0  0  0
   -3.1657    1.9607    1.0810 H   0  0  0  0  0  0  0  0  0  0  0  0
   -4.6991    1.7111    0.2796 H   0  0  0  0  0  0  0  0  0  0  0  0
   -1.0784    1.5400    0.5959 H   0  0  0  0  0  0  0  0  0  0  0  0
    5.1919   -1.9625   -0.7062 H   0  0  0  0  0  0  0  0  0  0  0  0
    1.5921    2.7416    0.9979 H   0  0  0  0  0  0  0  0  0  0  0  0
    4.0901    2.9549    1.0629 H   0  0  0  0  0  0  0  0  0  0  0  0
    5.5900    1.1068    0.3928 H   0  0  0  0  0  0  0  0  0  0  0  0
   -0.1827   -3.1162   -1.0709 H   0  0  0  0  0  0  0  0  0  0  0  0
   -2.4840   -2.3435   -0.7718 H   0  0  0  0  0  0  0  0  0  0  0  0
  1  2  1  0
  2  3  1  0
  2  4  1  0
  4  5  2  0
  5  6  1  0
  6  7  2  0
  7  8  1  0
  8  9  2  0
  9 10  1  0
 10 11  2  0
 11 12  1  0
 12 13  1  0
 13 14  2  0
 14 15  1  0
 15 16  2  0
  7 17  1  0
 17 18  2  0
 18  4  1  0
 13  6  1  0
 12  8  1  0
 16 11  1  0
  1 19  1  0
  1 20  1  0
  1 21  1  0
  3 22  1  0
  3 23  1  0
  3 24  1  0
  5 25  1  0
 10 26  1  0
 14 27  1  0
 15 28  1  0
 16 29  1  0
 17 30  1  0
 18 31  1  0
M  END
