
     RDKit          3D

 35 36  0  0  0  0  0  0  0  0999 V2000
    3.2683    2.1123    1.2132 C   0  0  0  0  0  0  0  0  0  0  0  0
    3.5600    0.7824    0.6703 N   0  0  0  0  0  0  0  0  0  0  0  0
    4.5630    0.7590   -0.3965 C   0  0  0  0  0  0  0  0  0  0  0  0
    2.4091    0.0065    0.4171 C   0  0  0  0  0  0  0  0  0  0  0  0
    2.2123   -1.0811    1.2729 C   0  0  0  0  0  0  0  0  0  0  0  0
    1.1084   -1.8883    1.0946 C   0  0  0  0  0  0  0  0  0  0  0  0
    0.1902   -1.6940    0.1284 N   0  0  0  0  0  0  0  0  0  0  0  0
    0.3498   -0.6455   -0.7105 C   0  0  0  0  0  0  0  0  0  0  0  0
   -0.6239   -0.4215   -1.7012 N   0  0  0  0  0  0  0  0  0  0  0  0
   -1.7980   -1.2870   -1.6893 C   0  0  0  0  0  0  0  0  0  0  0  0
   -2.8536   -0.7584   -0.7456 C   0  0  0  0  0  0  0  0  0  0  0  0
   -3.1762   -1.4537    0.4281 C   0  0  0  0  0  0  0  0  0  0  0  0
   -4.1566   -0.9672    1.2948 C   0  0  0  0  0  0  0  0  0  0  0  0
   -4.8220    0.2213    0.9995 C   0  0  0  0  0  0  0  0  0  0  0  0
   -4.5041    0.9277   -0.1590 C   0  0  0  0  0  0  0  0  0  0  0  0
   -3.5239    0.4422   -1.0262 C   0  0  0  0  0  0  0  0  0  0  0  0
    1.4506    0.2273   -0.5946 C   0  0  0  0  0  0  0  0  0  0  0  0
    1.5631    1.3248   -1.5074 C   0  0  0  0  0  0  0  0  0  0  0  0
    1.6763    2.1971   -2.2675 N   0  0  0  0  0  0  0  0  0  0  0  0
    2.8693    2.7921    0.4540 H   0  0  0  0  0  0  0  0  0  0  0  0
    4.1885    2.5564    1.6086 H   0  0  0  0  0  0  0  0  0  0  0  0
    2.5563    2.0516    2.0442 H   0  0  0  0  0  0  0  0  0  0  0  0
    4.7320   -0.2617   -0.7582 H   0  0  0  0  0  0  0  0  0  0  0  0
    4.2873    1.3949   -1.2428 H   0  0  0  0  0  0  0  0  0  0  0  0
    5.5187    1.1246   -0.0051 H   0  0  0  0  0  0  0  0  0  0  0  0
    2.9183   -1.2889    2.0706 H   0  0  0  0  0  0  0  0  0  0  0  0
    0.9267   -2.7389    1.7449 H   0  0  0  0  0  0  0  0  0  0  0  0
   -0.1895   -0.3932   -2.6188 H   0  0  0  0  0  0  0  0  0  0  0  0
   -2.2327   -1.2867   -2.6976 H   0  0  0  0  0  0  0  0  0  0  0  0
   -1.5520   -2.3374   -1.4891 H   0  0  0  0  0  0  0  0  0  0  0  0
   -2.6511   -2.3733    0.6777 H   0  0  0  0  0  0  0  0  0  0  0  0
   -4.3951   -1.5129    2.2035 H   0  0  0  0  0  0  0  0  0  0  0  0
   -5.5821    0.6014    1.6765 H   0  0  0  0  0  0  0  0  0  0  0  0
   -5.0142    1.8600   -0.3852 H   0  0  0  0  0  0  0  0  0  0  0  0
   -3.2733    1.0079   -1.9208 H   0  0  0  0  0  0  0  0  0  0  0  0
  1  2  1  0
  2  3  1  0
  2  4  1  0
  4  5  2  0
  5  6  1  0
  6  7  2  0
  7  8  1  0
  8  9  1  0
  9 10  1  0
 10 11  1  0
 11 12  2  0
 12 13  1  0
 13 14  2  0
 14 15  1  0
 15 16  2  0
  8 17  2  0
 17 18  1  0
 18 19  3  0
 17  4  1  0
 16 11  1  0
  1 20  1  0
  1 21  1  0
  1 22  1  0
  3 23  1  0
  3 24  1  0
  3 25  1  0
  5 26  1  0
  6 27  1  0
  9 28  1  0
 10 29  1  0
 10 30  1  0
 12 31  1  0
 13 32  1  0
 14 33  1  0
 15 34  1  0
 16 35  1  0
M  END
