
     RDKit          3D

 41 43  0  0  0  0  0  0  0  0999 V2000
   -5.2365   -1.3573    4.7011 C   0  0  0  0  0  0  0  0  0  0  0  0
   -3.8725   -1.2083    4.2067 N   0  0  0  0  0  0  0  0  0  0  0  0
   -2.9459   -2.2829    4.5543 C   0  0  0  0  0  0  0  0  0  0  0  0
   -3.6416   -0.4989    3.0630 C   0  0  0  0  0  0  0  0  0  0  0  0
   -2.4033   -0.6346    2.4848 O   0  0  0  0  0  0  0  0  0  0  0  0
   -2.4273    0.1704    1.3792 C   0  0  0  0  0  0  0  0  0  0  0  0
   -1.2134    0.2098    0.5679 C   0  0  0  0  0  0  0  0  0  0  0  0
   -0.0675   -0.5205    0.9075 C   0  0  0  0  0  0  0  0  0  0  0  0
    1.0778   -0.4599    0.1067 C   0  0  0  0  0  0  0  0  0  0  0  0
    1.1038    0.3283   -1.0454 C   0  0  0  0  0  0  0  0  0  0  0  0
    2.2849    0.2941   -1.7315 O   0  0  0  0  0  0  0  0  0  0  0  0
    2.3725    1.0810   -2.9166 C   0  0  0  0  0  0  0  0  0  0  0  0
    3.7507    0.8955   -3.5017 C   0  0  0  0  0  0  0  0  0  0  0  0
    4.8022    1.7453   -3.1304 C   0  0  0  0  0  0  0  0  0  0  0  0
    6.0800    1.5642   -3.6625 C   0  0  0  0  0  0  0  0  0  0  0  0
    6.3212    0.5279   -4.5624 C   0  0  0  0  0  0  0  0  0  0  0  0
    5.2871   -0.3323   -4.9270 C   0  0  0  0  0  0  0  0  0  0  0  0
    4.0085   -0.1530   -4.3962 C   0  0  0  0  0  0  0  0  0  0  0  0
   -0.0304    1.0596   -1.3931 C   0  0  0  0  0  0  0  0  0  0  0  0
   -1.1781    0.9993   -0.5912 C   0  0  0  0  0  0  0  0  0  0  0  0
   -3.5679    0.8056    1.1973 N   0  0  0  0  0  0  0  0  0  0  0  0
   -4.3370    0.3918    2.2634 C   0  0  0  0  0  0  0  0  0  0  0  0
   -5.6691    0.8716    2.4270 C   0  0  0  0  0  0  0  0  0  0  0  0
   -6.7612    1.2407    2.5752 N   0  0  0  0  0  0  0  0  0  0  0  0
   -5.8586   -1.8931    3.9760 H   0  0  0  0  0  0  0  0  0  0  0  0
   -5.2585   -1.9192    5.6416 H   0  0  0  0  0  0  0  0  0  0  0  0
   -5.6847   -0.3818    4.9144 H   0  0  0  0  0  0  0  0  0  0  0  0
   -3.1378   -2.6548    5.5669 H   0  0  0  0  0  0  0  0  0  0  0  0
   -3.0492   -3.1219    3.8576 H   0  0  0  0  0  0  0  0  0  0  0  0
   -1.9065   -1.9358    4.5423 H   0  0  0  0  0  0  0  0  0  0  0  0
   -0.0495   -1.1443    1.7984 H   0  0  0  0  0  0  0  0  0  0  0  0
    1.9594   -1.0333    0.3849 H   0  0  0  0  0  0  0  0  0  0  0  0
    1.6218    0.7610   -3.6504 H   0  0  0  0  0  0  0  0  0  0  0  0
    2.2146    2.1429   -2.6891 H   0  0  0  0  0  0  0  0  0  0  0  0
    4.6317    2.5500   -2.4188 H   0  0  0  0  0  0  0  0  0  0  0  0
    6.8889    2.2284   -3.3696 H   0  0  0  0  0  0  0  0  0  0  0  0
    7.3172    0.3856   -4.9734 H   0  0  0  0  0  0  0  0  0  0  0  0
    5.4776   -1.1472   -5.6202 H   0  0  0  0  0  0  0  0  0  0  0  0
    3.2139   -0.8399   -4.6789 H   0  0  0  0  0  0  0  0  0  0  0  0
   -0.0632    1.6873   -2.2774 H   0  0  0  0  0  0  0  0  0  0  0  0
   -2.0545    1.5787   -0.8803 H   0  0  0  0  0  0  0  0  0  0  0  0
  1  2  1  0
  2  3  1  0
  2  4  1  0
  4  5  1  0
  5  6  1  0
  6  7  1  0
  7  8  2  0
  8  9  1  0
  9 10  2  0
 10 11  1  0
 11 12  1  0
 12 13  1  0
 13 14  2  0
 14 15  1  0
 15 16  2  0
 16 17  1  0
 17 18  2  0
 10 19  1  0
 19 20  2  0
  6 21  2  0
 21 22  1  0
 22 23  1  0
 23 24  3  0
 22  4  2  0
 20  7  1  0
 18 13  1  0
  1 25  1  0
  1 26  1  0
  1 27  1  0
  3 28  1  0
  3 29  1  0
  3 30  1  0
  8 31  1  0
  9 32  1  0
 12 33  1  0
 12 34  1  0
 14 35  1  0
 15 36  1  0
 16 37  1  0
 17 38  1  0
 18 39  1  0
 19 40  1  0
 20 41  1  0
M  END
