
     RDKit          3D

 37 37  0  0  0  0  0  0  0  0999 V2000
   -4.5394    0.8058   -0.3035 C   0  0  0  0  0  0  0  0  0  0  0  0
   -3.2240    0.2373   -0.6125 N   0  0  0  0  0  0  0  0  0  0  0  0
   -2.7955    0.6779   -1.9391 C   0  0  0  0  0  0  0  0  0  0  0  0
   -2.2634    0.5703    0.4619 C   0  0  0  0  0  0  0  0  0  0  0  0
   -0.8231   -0.0685    0.4019 C   0  0  0  0  0  0  0  0  0  0  0  0
   -0.1419    0.2042    1.7563 C   0  0  0  0  0  0  0  0  0  0  0  0
   -0.9330   -1.5795    0.1864 C   0  0  0  0  0  0  0  0  0  0  0  0
   -0.0367    0.6397   -0.6360 N   0  0  0  0  0  0  0  0  0  0  0  0
    1.1900    0.0441   -1.5899 S   0  0  0  0  0  6  0  0  0  0  0  0
    1.5837    1.1473   -2.4406 O   0  0  0  0  0  0  0  0  0  0  0  0
    0.7987   -1.2268   -2.1528 O   0  0  0  0  0  0  0  0  0  0  0  0
    2.5234   -0.2228   -0.4496 C   0  0  0  0  0  0  0  0  0  0  0  0
    2.9367   -1.5233   -0.1440 C   0  0  0  0  0  0  0  0  0  0  0  0
    3.9986   -1.7166    0.7423 C   0  0  0  0  0  0  0  0  0  0  0  0
    4.6445   -0.6141    1.3040 C   0  0  0  0  0  0  0  0  0  0  0  0
    5.9504   -0.8569    2.3973 Cl  0  0  0  0  0  0  0  0  0  0  0  0
    4.2438    0.6839    0.9835 C   0  0  0  0  0  0  0  0  0  0  0  0
    3.1825    0.8840    0.0985 C   0  0  0  0  0  0  0  0  0  0  0  0
   -5.2780    0.5029   -1.0543 H   0  0  0  0  0  0  0  0  0  0  0  0
   -4.5155    1.9008   -0.2638 H   0  0  0  0  0  0  0  0  0  0  0  0
   -4.9067    0.4323    0.6590 H   0  0  0  0  0  0  0  0  0  0  0  0
   -1.9298    0.1087   -2.2867 H   0  0  0  0  0  0  0  0  0  0  0  0
   -3.5809    0.4910   -2.6810 H   0  0  0  0  0  0  0  0  0  0  0  0
   -2.5562    1.7468   -1.9625 H   0  0  0  0  0  0  0  0  0  0  0  0
   -2.7159    0.2380    1.4070 H   0  0  0  0  0  0  0  0  0  0  0  0
   -2.1654    1.6629    0.5383 H   0  0  0  0  0  0  0  0  0  0  0  0
    0.8483   -0.2566    1.8134 H   0  0  0  0  0  0  0  0  0  0  0  0
   -0.7320   -0.2004    2.5865 H   0  0  0  0  0  0  0  0  0  0  0  0
   -0.0145    1.2795    1.9275 H   0  0  0  0  0  0  0  0  0  0  0  0
    0.0383   -2.0756    0.2715 H   0  0  0  0  0  0  0  0  0  0  0  0
   -1.5858   -2.0331    0.9416 H   0  0  0  0  0  0  0  0  0  0  0  0
   -1.3490   -1.8268   -0.7953 H   0  0  0  0  0  0  0  0  0  0  0  0
   -0.2511    1.6194   -0.8132 H   0  0  0  0  0  0  0  0  0  0  0  0
    2.4429   -2.3847   -0.5893 H   0  0  0  0  0  0  0  0  0  0  0  0
    4.3205   -2.7262    0.9860 H   0  0  0  0  0  0  0  0  0  0  0  0
    4.7574    1.5400    1.4137 H   0  0  0  0  0  0  0  0  0  0  0  0
    2.8780    1.8951   -0.1625 H   0  0  0  0  0  0  0  0  0  0  0  0
  1  2  1  0
  2  3  1  0
  2  4  1  0
  4  5  1  0
  5  6  1  0
  5  7  1  0
  5  8  1  0
  8  9  1  0
  9 10  2  0
  9 11  2  0
  9 12  1  0
 12 13  2  0
 13 14  1  0
 14 15  2  0
 15 16  1  0
 15 17  1  0
 17 18  2  0
 18 12  1  0
  1 19  1  0
  1 20  1  0
  1 21  1  0
  3 22  1  0
  3 23  1  0
  3 24  1  0
  4 25  1  0
  4 26  1  0
  6 27  1  0
  6 28  1  0
  6 29  1  0
  7 30  1  0
  7 31  1  0
  7 32  1  0
  8 33  1  0
 13 34  1  0
 14 35  1  0
 17 36  1  0
 18 37  1  0
M  END
