
     RDKit          3D

 42 43  0  0  0  0  0  0  0  0999 V2000
   -4.4875    0.5310   -1.7030 C   0  0  0  0  0  0  0  0  0  0  0  0
   -4.2919    1.0570   -0.3496 N   0  0  0  0  0  0  0  0  0  0  0  0
   -5.5893    1.1663    0.3250 C   0  0  0  0  0  0  0  0  0  0  0  0
   -3.3794    0.2189    0.4467 C   0  0  0  0  0  0  0  0  0  0  0  0
   -1.9319    0.2692   -0.0557 C   0  0  0  0  0  0  0  0  0  0  0  0
   -1.0020   -0.4852    0.8939 C   0  0  0  0  0  0  0  0  0  0  0  0
    0.3616   -0.4521    0.3806 N   0  0  0  0  0  0  0  0  0  0  0  0
    1.4337   -1.1433    0.9087 C   0  0  0  0  0  0  0  0  0  0  0  0
    1.3878   -2.1395    1.7936 C   0  0  0  0  0  0  0  0  0  0  0  0
    2.7490   -2.5906    2.0378 C   0  0  0  0  0  0  0  0  0  0  0  0
    3.0572   -3.4869    2.8016 O   0  0  0  0  0  0  0  0  0  0  0  0
    3.6046   -1.8599    1.2836 O   0  0  0  0  0  0  0  0  0  0  0  0
    2.8748   -0.8759    0.5175 C   0  0  0  0  0  0  0  0  0  0  0  0
    3.1807   -1.1511   -0.9652 C   0  0  0  0  0  0  0  0  0  0  0  0
    2.8085   -0.0005   -1.8964 C   0  0  0  0  0  0  0  0  0  0  0  0
    3.4200    1.3176   -1.4340 C   0  0  0  0  0  0  0  0  0  0  0  0
    3.0599    1.6453    0.0110 C   0  0  0  0  0  0  0  0  0  0  0  0
    3.4069    0.5004    0.9589 C   0  0  0  0  0  0  0  0  0  0  0  0
   -4.8685   -0.4966   -1.6958 H   0  0  0  0  0  0  0  0  0  0  0  0
   -5.1972    1.1548   -2.2588 H   0  0  0  0  0  0  0  0  0  0  0  0
   -3.5561    0.5538   -2.2769 H   0  0  0  0  0  0  0  0  0  0  0  0
   -5.4715    1.6152    1.3176 H   0  0  0  0  0  0  0  0  0  0  0  0
   -6.0776    0.1918    0.4415 H   0  0  0  0  0  0  0  0  0  0  0  0
   -6.2616    1.8255   -0.2356 H   0  0  0  0  0  0  0  0  0  0  0  0
   -3.3805    0.5845    1.4821 H   0  0  0  0  0  0  0  0  0  0  0  0
   -3.7310   -0.8208    0.4769 H   0  0  0  0  0  0  0  0  0  0  0  0
   -1.6021    1.3127   -0.1408 H   0  0  0  0  0  0  0  0  0  0  0  0
   -1.8527   -0.1732   -1.0556 H   0  0  0  0  0  0  0  0  0  0  0  0
   -1.0271   -0.0263    1.8890 H   0  0  0  0  0  0  0  0  0  0  0  0
   -1.3409   -1.5235    0.9884 H   0  0  0  0  0  0  0  0  0  0  0  0
    0.6008    0.4081   -0.1053 H   0  0  0  0  0  0  0  0  0  0  0  0
    0.5353   -2.5884    2.2679 H   0  0  0  0  0  0  0  0  0  0  0  0
    2.6806   -2.0703   -1.2968 H   0  0  0  0  0  0  0  0  0  0  0  0
    4.2550   -1.3557   -1.0747 H   0  0  0  0  0  0  0  0  0  0  0  0
    3.1613   -0.2273   -2.9094 H   0  0  0  0  0  0  0  0  0  0  0  0
    1.7202    0.0979   -1.9660 H   0  0  0  0  0  0  0  0  0  0  0  0
    4.5115    1.2629   -1.5306 H   0  0  0  0  0  0  0  0  0  0  0  0
    3.0850    2.1293   -2.0898 H   0  0  0  0  0  0  0  0  0  0  0  0
    1.9965    1.8927    0.0834 H   0  0  0  0  0  0  0  0  0  0  0  0
    3.6013    2.5467    0.3221 H   0  0  0  0  0  0  0  0  0  0  0  0
    4.5013    0.4440    1.0447 H   0  0  0  0  0  0  0  0  0  0  0  0
    3.0554    0.7414    1.9706 H   0  0  0  0  0  0  0  0  0  0  0  0
  1  2  1  0
  2  3  1  0
  2  4  1  0
  4  5  1  0
  5  6  1  0
  6  7  1  0
  7  8  1  0
  8  9  2  0
  9 10  1  0
 10 11  2  0
 10 12  1  0
 12 13  1  0
 13 14  1  0
 14 15  1  0
 15 16  1  0
 16 17  1  0
 17 18  1  0
 13  8  1  0
 18 13  1  0
  1 19  1  0
  1 20  1  0
  1 21  1  0
  3 22  1  0
  3 23  1  0
  3 24  1  0
  4 25  1  0
  4 26  1  0
  5 27  1  0
  5 28  1  0
  6 29  1  0
  6 30  1  0
  7 31  1  0
  9 32  1  0
 14 33  1  0
 14 34  1  0
 15 35  1  0
 15 36  1  0
 16 37  1  0
 16 38  1  0
 17 39  1  0
 17 40  1  0
 18 41  1  0
 18 42  1  0
M  END
