
     RDKit          3D

 40 41  0  0  0  0  0  0  0  0999 V2000
    5.7976    1.1855   -2.6427 C   0  0  0  0  0  0  0  0  0  0  0  0
    5.0855    1.7508   -1.4978 N   0  0  0  0  0  0  0  0  0  0  0  0
    3.8664    1.1815   -1.1096 C   0  0  0  0  0  0  0  0  0  0  0  0
    2.9942    1.8205   -0.2113 C   0  0  0  0  0  0  0  0  0  0  0  0
    1.7767    1.2487    0.1927 C   0  0  0  0  0  0  0  0  0  0  0  0
    1.3808    0.0024   -0.2900 C   0  0  0  0  0  0  0  0  0  0  0  0
    2.2430   -0.6694   -1.1544 C   0  0  0  0  0  0  0  0  0  0  0  0
    3.4576   -0.0882   -1.5529 C   0  0  0  0  0  0  0  0  0  0  0  0
    0.1320   -0.6477    0.1278 C   0  0  0  0  0  0  0  0  0  0  0  0
   -1.0335    0.0027    0.2839 C   0  0  0  0  0  0  0  0  0  0  0  0
   -2.2847   -0.6135    0.6862 C   0  0  0  0  0  0  0  0  0  0  0  0
   -3.4252    0.0898    0.8147 C   0  0  0  0  0  0  0  0  0  0  0  0
   -4.6638   -0.5887    1.2266 C   0  0  0  0  0  0  0  0  0  0  0  0
   -4.5595   -2.0336    1.4747 C   0  0  0  0  0  0  0  0  0  0  0  0
   -3.3765   -2.6554    1.3215 C   0  0  0  0  0  0  0  0  0  0  0  0
   -3.1753   -4.1191    1.5520 C   0  0  0  0  0  0  0  0  0  0  0  0
   -2.2242   -1.9820    0.9311 O   0  0  0  0  0  0  0  0  0  0  0  0
   -5.8372    0.0815    1.3697 C   0  0  0  0  0  0  0  0  0  0  0  0
   -7.0390   -0.5744    1.7684 C   0  0  0  0  0  0  0  0  0  0  0  0
   -8.0086   -1.1231    2.0938 N   0  0  0  0  0  0  0  0  0  0  0  0
   -5.9417    1.4834    1.1311 C   0  0  0  0  0  0  0  0  0  0  0  0
   -6.0089    2.6252    0.9335 N   0  0  0  0  0  0  0  0  0  0  0  0
    5.3076    3.1760   -1.2592 C   0  0  0  0  0  0  0  0  0  0  0  0
    6.0926    0.1479   -2.4536 H   0  0  0  0  0  0  0  0  0  0  0  0
    6.7284    1.7295   -2.8396 H   0  0  0  0  0  0  0  0  0  0  0  0
    5.1869    1.2363   -3.5509 H   0  0  0  0  0  0  0  0  0  0  0  0
    3.2412    2.7882    0.2142 H   0  0  0  0  0  0  0  0  0  0  0  0
    1.1586    1.7915    0.9033 H   0  0  0  0  0  0  0  0  0  0  0  0
    1.9841   -1.6540   -1.5371 H   0  0  0  0  0  0  0  0  0  0  0  0
    4.0785   -0.6726   -2.2247 H   0  0  0  0  0  0  0  0  0  0  0  0
    0.1960   -1.7215    0.2885 H   0  0  0  0  0  0  0  0  0  0  0  0
   -1.0734    1.0725    0.0872 H   0  0  0  0  0  0  0  0  0  0  0  0
   -3.4239    1.1568    0.6122 H   0  0  0  0  0  0  0  0  0  0  0  0
   -5.4276   -2.6099    1.7820 H   0  0  0  0  0  0  0  0  0  0  0  0
   -2.8195   -4.6002    0.6353 H   0  0  0  0  0  0  0  0  0  0  0  0
   -2.4302   -4.2787    2.3379 H   0  0  0  0  0  0  0  0  0  0  0  0
   -4.1002   -4.6187    1.8578 H   0  0  0  0  0  0  0  0  0  0  0  0
    5.2981    3.4052   -0.1882 H   0  0  0  0  0  0  0  0  0  0  0  0
    4.5551    3.7838   -1.7736 H   0  0  0  0  0  0  0  0  0  0  0  0
    6.2919    3.4914   -1.6234 H   0  0  0  0  0  0  0  0  0  0  0  0
  1  2  1  0
  2  3  1  0
  3  4  2  0
  4  5  1  0
  5  6  2  0
  6  7  1  0
  7  8  2  0
  6  9  1  0
  9 10  2  3
 10 11  1  0
 11 12  2  0
 12 13  1  0
 13 14  1  0
 14 15  2  0
 15 16  1  0
 15 17  1  0
 13 18  2  3
 18 19  1  0
 19 20  3  0
 18 21  1  0
 21 22  3  0
  2 23  1  0
  8  3  1  0
 17 11  1  0
  1 24  1  0
  1 25  1  0
  1 26  1  0
  4 27  1  0
  5 28  1  0
  7 29  1  0
  8 30  1  0
  9 31  1  0
 10 32  1  0
 12 33  1  0
 14 34  1  0
 16 35  1  0
 16 36  1  0
 16 37  1  0
 23 38  1  0
 23 39  1  0
 23 40  1  0
M  END
