
     RDKit          3D

 34 35  0  0  0  0  0  0  0  0999 V2000
   -4.8504   -0.9872   -1.0821 C   0  0  0  0  0  0  0  0  0  0  0  0
   -4.0874    0.0557   -0.3981 N   0  0  0  0  0  0  0  0  0  0  0  0
   -2.6917   -0.0482   -0.3399 C   0  0  0  0  0  0  0  0  0  0  0  0
   -1.9744   -0.9333   -1.1607 C   0  0  0  0  0  0  0  0  0  0  0  0
   -0.5759   -1.0309   -1.1191 C   0  0  0  0  0  0  0  0  0  0  0  0
    0.1730   -0.2300   -0.2526 C   0  0  0  0  0  0  0  0  0  0  0  0
    1.5771   -0.3149   -0.1976 C   0  0  0  0  0  0  0  0  0  0  0  0
    2.3098    0.5005    0.6737 C   0  0  0  0  0  0  0  0  0  0  0  0
    3.8019    0.4420    0.7637 C   0  0  0  0  0  0  0  0  0  0  0  0
    4.5483   -0.5293   -0.1355 C   0  0  0  0  0  0  0  0  0  0  0  0
    6.0538   -0.4615    0.0664 C   0  0  0  0  0  0  0  0  0  0  0  0
    4.3835    1.1772    1.5594 O   0  0  0  0  0  0  0  0  0  0  0  0
    1.6290    1.4065    1.4936 C   0  0  0  0  0  0  0  0  0  0  0  0
    0.2357    1.4968    1.4441 C   0  0  0  0  0  0  0  0  0  0  0  0
   -0.5068    0.6824    0.5753 C   0  0  0  0  0  0  0  0  0  0  0  0
   -1.9149    0.7598    0.5126 C   0  0  0  0  0  0  0  0  0  0  0  0
   -4.7933    0.7490    0.6785 C   0  0  0  0  0  0  0  0  0  0  0  0
   -5.9258   -0.7791   -1.0500 H   0  0  0  0  0  0  0  0  0  0  0  0
   -4.5879   -1.0387   -2.1442 H   0  0  0  0  0  0  0  0  0  0  0  0
   -4.6888   -1.9645   -0.6140 H   0  0  0  0  0  0  0  0  0  0  0  0
   -2.4861   -1.5794   -1.8674 H   0  0  0  0  0  0  0  0  0  0  0  0
   -0.0853   -1.7415   -1.7804 H   0  0  0  0  0  0  0  0  0  0  0  0
    2.0790   -1.0265   -0.8467 H   0  0  0  0  0  0  0  0  0  0  0  0
    4.3230   -0.2884   -1.1798 H   0  0  0  0  0  0  0  0  0  0  0  0
    4.2095   -1.5469    0.0858 H   0  0  0  0  0  0  0  0  0  0  0  0
    6.5589   -1.1714   -0.5958 H   0  0  0  0  0  0  0  0  0  0  0  0
    6.3236   -0.7057    1.0992 H   0  0  0  0  0  0  0  0  0  0  0  0
    6.4353    0.5414   -0.1523 H   0  0  0  0  0  0  0  0  0  0  0  0
    2.1790    2.0507    2.1777 H   0  0  0  0  0  0  0  0  0  0  0  0
   -0.2660    2.2118    2.0930 H   0  0  0  0  0  0  0  0  0  0  0  0
   -2.3997    1.4864    1.1581 H   0  0  0  0  0  0  0  0  0  0  0  0
   -5.8771    0.7373    0.5166 H   0  0  0  0  0  0  0  0  0  0  0  0
   -4.5996    0.2740    1.6466 H   0  0  0  0  0  0  0  0  0  0  0  0
   -4.5092    1.8059    0.7222 H   0  0  0  0  0  0  0  0  0  0  0  0
  1  2  1  0
  2  3  1  0
  3  4  2  0
  4  5  1  0
  5  6  2  0
  6  7  1  0
  7  8  2  0
  8  9  1  0
  9 10  1  0
 10 11  1  0
  9 12  2  0
  8 13  1  0
 13 14  2  0
 14 15  1  0
 15 16  2  0
  2 17  1  0
 16  3  1  0
 15  6  1  0
  1 18  1  0
  1 19  1  0
  1 20  1  0
  4 21  1  0
  5 22  1  0
  7 23  1  0
 10 24  1  0
 10 25  1  0
 11 26  1  0
 11 27  1  0
 11 28  1  0
 13 29  1  0
 14 30  1  0
 16 31  1  0
 17 32  1  0
 17 33  1  0
 17 34  1  0
M  END
