
     RDKit          3D

 40 41  0  0  0  0  0  0  0  0999 V2000
   -3.8583    2.2367   -1.4038 C   0  0  0  0  0  0  0  0  0  0  0  0
   -3.9707    1.0831   -0.4766 N   0  0  0  0  0  0  0  0  0  0  0  0
   -2.7402    0.3643   -0.2800 C   0  0  0  0  0  0  0  0  0  0  0  0
   -2.1022    0.5101    0.9547 C   0  0  0  0  0  0  0  0  0  0  0  0
   -0.8857   -0.1336    1.2014 C   0  0  0  0  0  0  0  0  0  0  0  0
   -0.2922   -0.9133    0.2007 C   0  0  0  0  0  0  0  0  0  0  0  0
    0.9995   -1.6234    0.4141 C   0  0  0  0  0  0  0  0  0  0  0  0
    1.2446   -2.6467   -0.2139 O   0  0  0  0  0  0  0  0  0  0  0  0
    1.8724   -1.0439    1.3096 N   0  0  0  0  0  0  0  0  0  0  0  0
    3.2170   -1.5497    1.4815 C   0  0  0  0  0  0  0  0  0  0  0  0
    4.2036   -0.7115    0.7100 C   0  0  0  0  0  0  0  0  0  0  0  0
    4.3706   -0.9097   -0.6684 C   0  0  0  0  0  0  0  0  0  0  0  0
    5.2654   -0.1227   -1.3943 C   0  0  0  0  0  0  0  0  0  0  0  0
    5.9982    0.8730   -0.7514 C   0  0  0  0  0  0  0  0  0  0  0  0
    5.8353    1.0845    0.6167 C   0  0  0  0  0  0  0  0  0  0  0  0
    4.9400    0.2987    1.3448 C   0  0  0  0  0  0  0  0  0  0  0  0
   -0.9334   -1.0545   -1.0368 C   0  0  0  0  0  0  0  0  0  0  0  0
   -2.1476   -0.4066   -1.2814 C   0  0  0  0  0  0  0  0  0  0  0  0
   -5.3722    0.1380   -0.7536 S   0  0  0  0  0  6  0  0  0  0  0  0
   -5.4726   -0.8278    0.7412 C   0  0  0  0  0  0  0  0  0  0  0  0
   -5.1365   -0.7493   -1.8730 O   0  0  0  0  0  0  0  0  0  0  0  0
   -6.5061    1.0410   -0.7626 O   0  0  0  0  0  0  0  0  0  0  0  0
   -2.9603    2.8216   -1.1763 H   0  0  0  0  0  0  0  0  0  0  0  0
   -4.7142    2.9070   -1.2800 H   0  0  0  0  0  0  0  0  0  0  0  0
   -3.8026    1.9044   -2.4452 H   0  0  0  0  0  0  0  0  0  0  0  0
   -2.5552    1.1214    1.7316 H   0  0  0  0  0  0  0  0  0  0  0  0
   -0.4293   -0.0350    2.1821 H   0  0  0  0  0  0  0  0  0  0  0  0
    1.7154   -0.0873    1.5916 H   0  0  0  0  0  0  0  0  0  0  0  0
    3.2857   -2.5991    1.1739 H   0  0  0  0  0  0  0  0  0  0  0  0
    3.4408   -1.5109    2.5533 H   0  0  0  0  0  0  0  0  0  0  0  0
    3.7975   -1.6814   -1.1810 H   0  0  0  0  0  0  0  0  0  0  0  0
    5.3886   -0.2875   -2.4616 H   0  0  0  0  0  0  0  0  0  0  0  0
    6.6958    1.4846   -1.3175 H   0  0  0  0  0  0  0  0  0  0  0  0
    6.4071    1.8621    1.1164 H   0  0  0  0  0  0  0  0  0  0  0  0
    4.8246    0.4781    2.4111 H   0  0  0  0  0  0  0  0  0  0  0  0
   -0.4852   -1.6666   -1.8179 H   0  0  0  0  0  0  0  0  0  0  0  0
   -2.6194   -0.5183   -2.2548 H   0  0  0  0  0  0  0  0  0  0  0  0
   -4.6256   -1.5134    0.7917 H   0  0  0  0  0  0  0  0  0  0  0  0
   -6.4026   -1.4000    0.7048 H   0  0  0  0  0  0  0  0  0  0  0  0
   -5.4901   -0.1527    1.5988 H   0  0  0  0  0  0  0  0  0  0  0  0
  1  2  1  0
  2  3  1  0
  3  4  2  0
  4  5  1  0
  5  6  2  0
  6  7  1  0
  7  8  2  0
  7  9  1  0
  9 10  1  0
 10 11  1  0
 11 12  2  0
 12 13  1  0
 13 14  2  0
 14 15  1  0
 15 16  2  0
  6 17  1  0
 17 18  2  0
  2 19  1  0
 19 20  1  0
 19 21  2  0
 19 22  2  0
 18  3  1  0
 16 11  1  0
  1 23  1  0
  1 24  1  0
  1 25  1  0
  4 26  1  0
  5 27  1  0
  9 28  1  0
 10 29  1  0
 10 30  1  0
 12 31  1  0
 13 32  1  0
 14 33  1  0
 15 34  1  0
 16 35  1  0
 17 36  1  0
 18 37  1  0
 20 38  1  0
 20 39  1  0
 20 40  1  0
M  END
