
     RDKit          3D

 50 55  0  0  0  0  0  0  0  0999 V2000
   -4.2570   -1.0533    2.4587 C   0  0  0  0  0  0  0  0  0  0  0  0
   -3.6688   -0.6788    1.1969 N   0  0  0  0  0  0  0  0  0  0  0  0
   -2.2919   -0.7996    0.9295 C   0  0  0  0  0  0  0  0  0  0  0  0
   -1.3924   -1.1874    1.6455 O   0  0  0  0  0  0  0  0  0  0  0  0
   -2.1938   -0.3421   -0.4685 C   0  0  0  0  0  0  0  0  0  0  0  0
   -1.3446   -0.1310   -1.4736 C   0  0  0  0  0  0  0  0  0  0  0  0
    0.0499   -0.3530   -1.4307 C   0  0  0  0  0  0  0  0  0  0  0  0
    0.8146   -1.2363   -2.1709 C   0  0  0  0  0  0  0  0  0  0  0  0
    2.2021   -1.1691   -1.8523 C   0  0  0  0  0  0  0  0  0  0  0  0
    2.4753   -0.2382   -0.8696 C   0  0  0  0  0  0  0  0  0  0  0  0
    3.7721    0.1200   -0.2826 C   0  0  0  0  0  0  0  0  0  0  0  0
    4.8737    0.3593   -1.1127 C   0  0  0  0  0  0  0  0  0  0  0  0
    6.1184    0.6909   -0.5693 C   0  0  0  0  0  0  0  0  0  0  0  0
    6.2917    0.7854    0.8191 C   0  0  0  0  0  0  0  0  0  0  0  0
    7.5351    1.1168    1.3815 C   0  0  0  0  0  0  0  0  0  0  0  0
    7.6911    1.2038    2.7657 C   0  0  0  0  0  0  0  0  0  0  0  0
    6.6074    0.9607    3.6042 C   0  0  0  0  0  0  0  0  0  0  0  0
    5.3650    0.6306    3.0603 C   0  0  0  0  0  0  0  0  0  0  0  0
    5.1907    0.5399    1.6696 C   0  0  0  0  0  0  0  0  0  0  0  0
    3.9452    0.2086    1.1072 C   0  0  0  0  0  0  0  0  0  0  0  0
    1.0457    0.5641   -0.3708 S   0  0  0  0  0  0  0  0  0  0  0  0
   -2.0437    0.3357   -2.5842 N   0  0  0  0  0  0  0  0  0  0  0  0
   -1.4566    0.7155   -3.8448 C   0  0  0  0  0  0  0  0  0  0  0  0
   -3.4207    0.4569   -2.3162 C   0  0  0  0  0  0  0  0  0  0  0  0
   -4.3200    0.8466   -3.0313 O   0  0  0  0  0  0  0  0  0  0  0  0
   -3.5188   -0.0014   -0.9190 C   0  0  0  0  0  0  0  0  0  0  0  0
   -4.3676   -0.2130    0.0860 C   0  0  0  0  0  0  0  0  0  0  0  0
   -5.7620    0.0082    0.0439 C   0  0  0  0  0  0  0  0  0  0  0  0
   -6.5215    0.9205    0.7570 C   0  0  0  0  0  0  0  0  0  0  0  0
   -7.9123    0.8424    0.4562 C   0  0  0  0  0  0  0  0  0  0  0  0
   -8.1809   -0.1329   -0.4757 C   0  0  0  0  0  0  0  0  0  0  0  0
   -6.7661   -0.9480   -0.9775 S   0  0  0  0  0  0  0  0  0  0  0  0
   -3.4984   -1.4746    3.1244 H   0  0  0  0  0  0  0  0  0  0  0  0
   -5.0353   -1.8035    2.2910 H   0  0  0  0  0  0  0  0  0  0  0  0
   -4.6873   -0.1673    2.9339 H   0  0  0  0  0  0  0  0  0  0  0  0
    0.3952   -1.9145   -2.9047 H   0  0  0  0  0  0  0  0  0  0  0  0
    2.9620   -1.7898   -2.3122 H   0  0  0  0  0  0  0  0  0  0  0  0
    4.7713    0.3017   -2.1939 H   0  0  0  0  0  0  0  0  0  0  0  0
    6.9529    0.8766   -1.2416 H   0  0  0  0  0  0  0  0  0  0  0  0
    8.3940    1.3096    0.7427 H   0  0  0  0  0  0  0  0  0  0  0  0
    8.6589    1.4611    3.1881 H   0  0  0  0  0  0  0  0  0  0  0  0
    6.7268    1.0275    4.6824 H   0  0  0  0  0  0  0  0  0  0  0  0
    4.5295    0.4443    3.7318 H   0  0  0  0  0  0  0  0  0  0  0  0
    3.1020    0.0062    1.7660 H   0  0  0  0  0  0  0  0  0  0  0  0
   -1.0350   -0.1701   -4.3283 H   0  0  0  0  0  0  0  0  0  0  0  0
   -2.2141    1.1475   -4.5050 H   0  0  0  0  0  0  0  0  0  0  0  0
   -0.6720    1.4585   -3.6743 H   0  0  0  0  0  0  0  0  0  0  0  0
   -6.0940    1.6249    1.4610 H   0  0  0  0  0  0  0  0  0  0  0  0
   -8.6750    1.4725    0.8972 H   0  0  0  0  0  0  0  0  0  0  0  0
   -9.1412   -0.4075   -0.8902 H   0  0  0  0  0  0  0  0  0  0  0  0
  1  2  1  0
  2  3  1  0
  3  4  2  0
  3  5  1  0
  5  6  2  0
  6  7  1  0
  7  8  2  0
  8  9  1  0
  9 10  2  0
 10 11  1  0
 11 12  2  0
 12 13  1  0
 13 14  2  0
 14 15  1  0
 15 16  2  0
 16 17  1  0
 17 18  2  0
 18 19  1  0
 19 20  2  0
 10 21  1  0
  6 22  1  0
 22 23  1  0
 22 24  1  0
 24 25  2  0
 24 26  1  0
 26 27  2  0
 27 28  1  0
 28 29  2  0
 29 30  1  0
 30 31  2  0
 31 32  1  0
 27  2  1  0
 32 28  1  0
 26  5  1  0
 21  7  1  0
 20 11  1  0
 19 14  1  0
  1 33  1  0
  1 34  1  0
  1 35  1  0
  8 36  1  0
  9 37  1  0
 12 38  1  0
 13 39  1  0
 15 40  1  0
 16 41  1  0
 17 42  1  0
 18 43  1  0
 20 44  1  0
 23 45  1  0
 23 46  1  0
 23 47  1  0
 29 48  1  0
 30 49  1  0
 31 50  1  0
M  END
