
     RDKit          3D

 40 46  0  0  0  0  0  0  0  0999 V2000
   -4.5634   -2.2111    1.6403 Si  0  0  0  0  0  4  0  0  0  0  0  0
   -6.0191   -1.3608    0.7931 C   0  0  0  0  0  0  0  0  0  0  0  0
   -5.6489   -0.3647   -0.0335 C   0  0  0  0  0  0  0  0  0  0  0  0
   -4.2019   -0.1797   -0.0768 C   0  0  0  0  0  0  0  0  0  0  0  0
   -3.3925   -1.0443    0.7310 C   0  0  0  0  0  0  0  0  0  0  0  0
   -1.9748   -0.9470    0.7608 C   0  0  0  0  0  0  0  0  0  0  0  0
   -0.6753   -2.0083    1.7770 Si  0  0  0  0  0  4  0  0  0  0  0  0
    0.7190   -0.9987    1.0210 C   0  0  0  0  0  0  0  0  0  0  0  0
    2.1057   -0.8992    1.0467 C   0  0  0  0  0  0  0  0  0  0  0  0
    2.4313    0.1408    0.1791 C   0  0  0  0  0  0  0  0  0  0  0  0
    1.2455    0.6412   -0.3463 N   0  0  0  0  0  0  0  0  0  0  0  0
    0.1952   -0.0537    0.1667 C   0  0  0  0  0  0  0  0  0  0  0  0
   -1.2326    0.0234   -0.0138 C   0  0  0  0  0  0  0  0  0  0  0  0
   -2.0364    0.8532   -0.7914 C   0  0  0  0  0  0  0  0  0  0  0  0
   -1.6761    1.8710   -1.6374 C   0  0  0  0  0  0  0  0  0  0  0  0
   -2.8419    2.3854   -2.1728 N   0  0  0  0  0  0  0  0  0  0  0  0
   -3.9411    1.7113   -1.6813 C   0  0  0  0  0  0  0  0  0  0  0  0
   -3.4723    0.7527   -0.8198 C   0  0  0  0  0  0  0  0  0  0  0  0
    3.7158    0.6756   -0.1774 C   0  0  0  0  0  0  0  0  0  0  0  0
    3.8946    2.0037   -1.3058 S   0  0  0  0  0  0  0  0  0  0  0  0
    5.6208    2.0310   -1.1897 C   0  0  0  0  0  0  0  0  0  0  0  0
    5.9833    1.0646   -0.3289 C   0  0  0  0  0  0  0  0  0  0  0  0
    7.2565    0.7565    0.0392 O   0  0  0  0  0  0  0  0  0  0  0  0
    6.9989   -0.2827    0.9127 C   0  0  0  0  0  0  0  0  0  0  0  0
    5.6389   -0.5831    1.0612 C   0  0  0  0  0  0  0  0  0  0  0  0
    4.9632    0.3270    0.2234 C   0  0  0  0  0  0  0  0  0  0  0  0
   -4.5569   -1.9924    3.1080 H   0  0  0  0  0  0  0  0  0  0  0  0
   -4.4053   -3.6228    1.2112 H   0  0  0  0  0  0  0  0  0  0  0  0
   -7.0299   -1.6836    0.9897 H   0  0  0  0  0  0  0  0  0  0  0  0
   -6.3274    0.2454   -0.6121 H   0  0  0  0  0  0  0  0  0  0  0  0
   -0.8686   -1.8017    3.2357 H   0  0  0  0  0  0  0  0  0  0  0  0
   -0.7170   -3.4287    1.3426 H   0  0  0  0  0  0  0  0  0  0  0  0
    2.8013   -1.4983    1.6174 H   0  0  0  0  0  0  0  0  0  0  0  0
    1.1888    1.4034   -1.0059 H   0  0  0  0  0  0  0  0  0  0  0  0
   -0.7225    2.2897   -1.9210 H   0  0  0  0  0  0  0  0  0  0  0  0
   -2.8844    3.1503   -2.8336 H   0  0  0  0  0  0  0  0  0  0  0  0
   -4.9389    1.9839   -1.9955 H   0  0  0  0  0  0  0  0  0  0  0  0
    6.2511    2.7202   -1.7319 H   0  0  0  0  0  0  0  0  0  0  0  0
    7.8878   -0.7133    1.3552 H   0  0  0  0  0  0  0  0  0  0  0  0
    5.2296   -1.3564    1.6936 H   0  0  0  0  0  0  0  0  0  0  0  0
  1  2  1  0
  2  3  2  0
  3  4  1  0
  4  5  2  0
  5  6  1  0
  6  7  1  0
  7  8  1  0
  8  9  1  0
  9 10  2  0
 10 11  1  0
 11 12  1  0
 12 13  1  0
 13 14  1  0
 14 15  2  0
 15 16  1  0
 16 17  1  0
 17 18  2  0
 10 19  1  0
 19 20  1  0
 20 21  1  0
 21 22  2  0
 22 23  1  0
 23 24  1  0
 24 25  2  0
 25 26  1  0
  5  1  1  0
 13  6  2  0
 18 14  1  0
 26 19  2  0
 18  4  1  0
 26 22  1  0
 12  8  2  0
  1 27  1  0
  1 28  1  0
  2 29  1  0
  3 30  1  0
  7 31  1  0
  7 32  1  0
  9 33  1  0
 11 34  1  0
 15 35  1  0
 16 36  1  0
 17 37  1  0
 21 38  1  0
 24 39  1  0
 25 40  1  0
M  END
