
     RDKit          3D

 44 48  0  0  0  0  0  0  0  0999 V2000
   -3.9023   -1.6552    2.2998 C   0  0  0  0  0  0  0  0  0  0  0  0
   -3.0877   -0.9742    1.3246 N   0  0  0  0  0  0  0  0  0  0  0  0
   -1.7097   -1.2168    1.1746 C   0  0  0  0  0  0  0  0  0  0  0  0
   -0.9792   -1.9670    1.7880 O   0  0  0  0  0  0  0  0  0  0  0  0
   -1.3465   -0.3338    0.0518 C   0  0  0  0  0  0  0  0  0  0  0  0
   -0.3279    0.0717   -0.7069 C   0  0  0  0  0  0  0  0  0  0  0  0
    1.0024   -0.3922   -0.5673 C   0  0  0  0  0  0  0  0  0  0  0  0
    1.4683   -1.6954   -0.5428 C   0  0  0  0  0  0  0  0  0  0  0  0
    2.8785   -1.7812   -0.3569 C   0  0  0  0  0  0  0  0  0  0  0  0
    3.4735   -0.5417   -0.2330 C   0  0  0  0  0  0  0  0  0  0  0  0
    4.8899   -0.2246   -0.0089 C   0  0  0  0  0  0  0  0  0  0  0  0
    5.5441    0.7758   -0.7433 C   0  0  0  0  0  0  0  0  0  0  0  0
    6.8962    1.0539   -0.5241 C   0  0  0  0  0  0  0  0  0  0  0  0
    7.6116    0.3337    0.4298 C   0  0  0  0  0  0  0  0  0  0  0  0
    6.9775   -0.6656    1.1642 C   0  0  0  0  0  0  0  0  0  0  0  0
    5.6259   -0.9444    0.9446 C   0  0  0  0  0  0  0  0  0  0  0  0
    2.3038    0.7067   -0.3208 S   0  0  0  0  0  0  0  0  0  0  0  0
   -0.7933    0.9866   -1.6513 N   0  0  0  0  0  0  0  0  0  0  0  0
   -0.0094    1.6226   -2.6799 C   0  0  0  0  0  0  0  0  0  0  0  0
   -2.1739    1.2281   -1.5040 C   0  0  0  0  0  0  0  0  0  0  0  0
   -2.9049    1.9676   -2.1293 O   0  0  0  0  0  0  0  0  0  0  0  0
   -2.5380    0.3479   -0.3810 C   0  0  0  0  0  0  0  0  0  0  0  0
   -3.5498   -0.0529    0.3877 C   0  0  0  0  0  0  0  0  0  0  0  0
   -4.8869    0.3896    0.2826 C   0  0  0  0  0  0  0  0  0  0  0  0
   -5.6364    1.1213    1.1882 C   0  0  0  0  0  0  0  0  0  0  0  0
   -6.9650    1.3713    0.7372 C   0  0  0  0  0  0  0  0  0  0  0  0
   -7.1986    0.8181   -0.5002 C   0  0  0  0  0  0  0  0  0  0  0  0
   -5.8266    0.0013   -1.1073 S   0  0  0  0  0  0  0  0  0  0  0  0
   -3.3071   -2.3908    2.8484 H   0  0  0  0  0  0  0  0  0  0  0  0
   -4.7231   -2.1718    1.7939 H   0  0  0  0  0  0  0  0  0  0  0  0
   -4.3005   -0.9260    3.0108 H   0  0  0  0  0  0  0  0  0  0  0  0
    0.8227   -2.5601   -0.6478 H   0  0  0  0  0  0  0  0  0  0  0  0
    3.4280   -2.7142   -0.3155 H   0  0  0  0  0  0  0  0  0  0  0  0
    5.0105    1.3434   -1.5020 H   0  0  0  0  0  0  0  0  0  0  0  0
    7.3897    1.8321   -1.1007 H   0  0  0  0  0  0  0  0  0  0  0  0
    8.6627    0.5512    0.6007 H   0  0  0  0  0  0  0  0  0  0  0  0
    7.5326   -1.2277    1.9108 H   0  0  0  0  0  0  0  0  0  0  0  0
    5.1474   -1.7222    1.5359 H   0  0  0  0  0  0  0  0  0  0  0  0
    0.5976    2.4136   -2.2314 H   0  0  0  0  0  0  0  0  0  0  0  0
   -0.6646    2.0761   -3.4295 H   0  0  0  0  0  0  0  0  0  0  0  0
    0.6298    0.8854   -3.1739 H   0  0  0  0  0  0  0  0  0  0  0  0
   -5.2432    1.4733    2.1348 H   0  0  0  0  0  0  0  0  0  0  0  0
   -7.7087    1.9321    1.2900 H   0  0  0  0  0  0  0  0  0  0  0  0
   -8.1096    0.8546   -1.0817 H   0  0  0  0  0  0  0  0  0  0  0  0
  1  2  1  0
  2  3  1  0
  3  4  2  0
  3  5  1  0
  5  6  2  0
  6  7  1  0
  7  8  2  0
  8  9  1  0
  9 10  2  0
 10 11  1  0
 11 12  2  0
 12 13  1  0
 13 14  2  0
 14 15  1  0
 15 16  2  0
 10 17  1  0
  6 18  1  0
 18 19  1  0
 18 20  1  0
 20 21  2  0
 20 22  1  0
 22 23  2  0
 23 24  1  0
 24 25  2  0
 25 26  1  0
 26 27  2  0
 27 28  1  0
 23  2  1  0
 28 24  1  0
 22  5  1  0
 17  7  1  0
 16 11  1  0
  1 29  1  0
  1 30  1  0
  1 31  1  0
  8 32  1  0
  9 33  1  0
 12 34  1  0
 13 35  1  0
 14 36  1  0
 15 37  1  0
 16 38  1  0
 19 39  1  0
 19 40  1  0
 19 41  1  0
 25 42  1  0
 26 43  1  0
 27 44  1  0
M  END
