
     RDKit          3D

 41 45  0  0  0  0  0  0  0  0999 V2000
   -3.8158   -1.5401   -2.2866 C   0  0  0  0  0  0  0  0  0  0  0  0
   -2.8519   -0.9272   -1.4056 N   0  0  0  0  0  0  0  0  0  0  0  0
   -1.4884   -1.2613   -1.4362 C   0  0  0  0  0  0  0  0  0  0  0  0
   -0.9033   -2.0583   -2.1403 O   0  0  0  0  0  0  0  0  0  0  0  0
   -0.9132   -0.3989   -0.3879 C   0  0  0  0  0  0  0  0  0  0  0  0
    0.2217   -0.0646    0.2303 C   0  0  0  0  0  0  0  0  0  0  0  0
    1.5127   -0.5976   -0.0307 C   0  0  0  0  0  0  0  0  0  0  0  0
    1.9052   -1.7620   -0.6797 C   0  0  0  0  0  0  0  0  0  0  0  0
    3.3203   -1.8224   -0.6675 C   0  0  0  0  0  0  0  0  0  0  0  0
    3.7674   -0.6968   -0.0060 C   0  0  0  0  0  0  0  0  0  0  0  0
    5.1175   -0.2875    0.2788 C   0  0  0  0  0  0  0  0  0  0  0  0
    6.2905   -0.9306   -0.0713 C   0  0  0  0  0  0  0  0  0  0  0  0
    7.4531   -0.2370    0.3791 C   0  0  0  0  0  0  0  0  0  0  0  0
    7.1323    0.9149    1.0598 C   0  0  0  0  0  0  0  0  0  0  0  0
    5.4425    1.1537    1.1527 S   0  0  0  0  0  0  0  0  0  0  0  0
    2.6725    0.0300    0.3731 O   0  0  0  0  0  0  0  0  0  0  0  0
   -0.0534    0.9130    1.1893 N   0  0  0  0  0  0  0  0  0  0  0  0
    0.9105    1.5309    2.0679 C   0  0  0  0  0  0  0  0  0  0  0  0
   -1.4171    1.2471    1.2194 C   0  0  0  0  0  0  0  0  0  0  0  0
   -2.0032    2.0441    1.9225 O   0  0  0  0  0  0  0  0  0  0  0  0
   -1.9912    0.3842    0.1711 C   0  0  0  0  0  0  0  0  0  0  0  0
   -3.1263    0.0500   -0.4467 C   0  0  0  0  0  0  0  0  0  0  0  0
   -4.4164    0.5845   -0.1838 C   0  0  0  0  0  0  0  0  0  0  0  0
   -4.8015    1.7720    0.4357 C   0  0  0  0  0  0  0  0  0  0  0  0
   -6.2157    1.8346    0.4499 C   0  0  0  0  0  0  0  0  0  0  0  0
   -6.6433    0.6886   -0.1636 C   0  0  0  0  0  0  0  0  0  0  0  0
   -5.5850   -0.0610   -0.5487 O   0  0  0  0  0  0  0  0  0  0  0  0
   -4.3541   -0.7653   -2.8400 H   0  0  0  0  0  0  0  0  0  0  0  0
   -4.5124   -2.1428   -1.6971 H   0  0  0  0  0  0  0  0  0  0  0  0
   -3.3145   -2.1957   -3.0048 H   0  0  0  0  0  0  0  0  0  0  0  0
    1.2480   -2.5015   -1.1162 H   0  0  0  0  0  0  0  0  0  0  0  0
    3.9351   -2.6031   -1.0923 H   0  0  0  0  0  0  0  0  0  0  0  0
    6.3245   -1.8592   -0.6276 H   0  0  0  0  0  0  0  0  0  0  0  0
    8.4710   -0.5672    0.2110 H   0  0  0  0  0  0  0  0  0  0  0  0
    7.8075    1.6306    1.5084 H   0  0  0  0  0  0  0  0  0  0  0  0
    0.4089    2.1917    2.7810 H   0  0  0  0  0  0  0  0  0  0  0  0
    1.4468    0.7591    2.6275 H   0  0  0  0  0  0  0  0  0  0  0  0
    1.6086    2.1292    1.4756 H   0  0  0  0  0  0  0  0  0  0  0  0
   -4.1347    2.5239    0.8356 H   0  0  0  0  0  0  0  0  0  0  0  0
   -6.8381    2.6188    0.8571 H   0  0  0  0  0  0  0  0  0  0  0  0
   -7.6171    0.2791   -0.3933 H   0  0  0  0  0  0  0  0  0  0  0  0
  1  2  1  0
  2  3  1  0
  3  4  2  0
  3  5  1  0
  5  6  2  0
  6  7  1  0
  7  8  2  0
  8  9  1  0
  9 10  2  0
 10 11  1  0
 11 12  2  0
 12 13  1  0
 13 14  2  0
 14 15  1  0
 10 16  1  0
  6 17  1  0
 17 18  1  0
 17 19  1  0
 19 20  2  0
 19 21  1  0
 21 22  2  0
 22 23  1  0
 23 24  2  0
 24 25  1  0
 25 26  2  0
 26 27  1  0
 22  2  1  0
 27 23  1  0
 21  5  1  0
 16  7  1  0
 15 11  1  0
  1 28  1  0
  1 29  1  0
  1 30  1  0
  8 31  1  0
  9 32  1  0
 12 33  1  0
 13 34  1  0
 14 35  1  0
 18 36  1  0
 18 37  1  0
 18 38  1  0
 24 39  1  0
 25 40  1  0
 26 41  1  0
M  END
