
     RDKit          3D

 41 45  0  0  0  0  0  0  0  0999 V2000
   -3.2801    3.0795   -0.5111 C   0  0  0  0  0  0  0  0  0  0  0  0
   -2.5475    1.8640   -0.2598 N   0  0  0  0  0  0  0  0  0  0  0  0
   -1.1625    1.8622   -0.0044 C   0  0  0  0  0  0  0  0  0  0  0  0
   -0.3834    2.7886    0.0811 O   0  0  0  0  0  0  0  0  0  0  0  0
   -0.8621    0.4284    0.1435 C   0  0  0  0  0  0  0  0  0  0  0  0
    0.1212   -0.4435    0.3678 C   0  0  0  0  0  0  0  0  0  0  0  0
    1.4727   -0.0820    0.5839 C   0  0  0  0  0  0  0  0  0  0  0  0
    1.9946    0.8143    1.4985 C   0  0  0  0  0  0  0  0  0  0  0  0
    3.4129    0.9374    1.4128 C   0  0  0  0  0  0  0  0  0  0  0  0
    3.9636    0.1479    0.4203 C   0  0  0  0  0  0  0  0  0  0  0  0
    5.3602    0.0174    0.0525 C   0  0  0  0  0  0  0  0  0  0  0  0
    5.8963   -0.5912   -1.0715 C   0  0  0  0  0  0  0  0  0  0  0  0
    7.3212   -0.5389   -1.1117 C   0  0  0  0  0  0  0  0  0  0  0  0
    7.8410    0.1082   -0.0161 C   0  0  0  0  0  0  0  0  0  0  0  0
    6.6187    0.6460    1.0468 S   0  0  0  0  0  0  0  0  0  0  0  0
    2.7297   -0.7227   -0.3976 S   0  0  0  0  0  0  0  0  0  0  0  0
   -0.4034   -1.7360    0.3775 N   0  0  0  0  0  0  0  0  0  0  0  0
    0.3296   -2.9510    0.6307 C   0  0  0  0  0  0  0  0  0  0  0  0
   -1.7887   -1.7349    0.1215 C   0  0  0  0  0  0  0  0  0  0  0  0
   -2.5659   -2.6628    0.0343 O   0  0  0  0  0  0  0  0  0  0  0  0
   -2.0900   -0.3009   -0.0261 C   0  0  0  0  0  0  0  0  0  0  0  0
   -3.0731    0.5717   -0.2497 C   0  0  0  0  0  0  0  0  0  0  0  0
   -4.4250    0.2098   -0.4650 C   0  0  0  0  0  0  0  0  0  0  0  0
   -4.9474   -0.6960   -1.3752 C   0  0  0  0  0  0  0  0  0  0  0  0
   -6.3642   -0.8245   -1.2908 C   0  0  0  0  0  0  0  0  0  0  0  0
   -6.8926   -0.0249   -0.3055 C   0  0  0  0  0  0  0  0  0  0  0  0
   -5.6861    0.8626    0.5133 S   0  0  0  0  0  0  0  0  0  0  0  0
   -2.5888    3.9018   -0.7187 H   0  0  0  0  0  0  0  0  0  0  0  0
   -3.9381    2.9491   -1.3749 H   0  0  0  0  0  0  0  0  0  0  0  0
   -3.8631    3.3378    0.3769 H   0  0  0  0  0  0  0  0  0  0  0  0
    1.3860    1.3682    2.2045 H   0  0  0  0  0  0  0  0  0  0  0  0
    3.9903    1.5933    2.0533 H   0  0  0  0  0  0  0  0  0  0  0  0
    5.2990   -1.0561   -1.8466 H   0  0  0  0  0  0  0  0  0  0  0  0
    7.9298   -0.9544   -1.9055 H   0  0  0  0  0  0  0  0  0  0  0  0
    8.8816    0.2931    0.2127 H   0  0  0  0  0  0  0  0  0  0  0  0
   -0.3612   -3.7742    0.8356 H   0  0  0  0  0  0  0  0  0  0  0  0
    0.9161   -3.2079   -0.2555 H   0  0  0  0  0  0  0  0  0  0  0  0
    0.9849   -2.8199    1.4965 H   0  0  0  0  0  0  0  0  0  0  0  0
   -4.3350   -1.2535   -2.0751 H   0  0  0  0  0  0  0  0  0  0  0  0
   -6.9606   -1.4789   -1.9147 H   0  0  0  0  0  0  0  0  0  0  0  0
   -7.9304    0.0726   -0.0176 H   0  0  0  0  0  0  0  0  0  0  0  0
  1  2  1  0
  2  3  1  0
  3  4  2  0
  3  5  1  0
  5  6  2  0
  6  7  1  0
  7  8  2  0
  8  9  1  0
  9 10  2  0
 10 11  1  0
 11 12  2  0
 12 13  1  0
 13 14  2  0
 14 15  1  0
 10 16  1  0
  6 17  1  0
 17 18  1  0
 17 19  1  0
 19 20  2  0
 19 21  1  0
 21 22  2  0
 22 23  1  0
 23 24  2  0
 24 25  1  0
 25 26  2  0
 26 27  1  0
 22  2  1  0
 27 23  1  0
 21  5  1  0
 16  7  1  0
 15 11  1  0
  1 28  1  0
  1 29  1  0
  1 30  1  0
  8 31  1  0
  9 32  1  0
 12 33  1  0
 13 34  1  0
 14 35  1  0
 18 36  1  0
 18 37  1  0
 18 38  1  0
 24 39  1  0
 25 40  1  0
 26 41  1  0
M  END
