
     RDKit          3D

 39 41  0  0  0  0  0  0  0  0999 V2000
   -3.8893   -2.9387   -0.1735 C   0  0  0  0  0  0  0  0  0  0  0  0
   -3.5035   -1.6071    0.2228 N   0  0  0  0  0  0  0  0  0  0  0  0
   -4.3807   -0.6772    0.7093 C   0  0  0  0  0  0  0  0  0  0  0  0
   -5.5753   -0.7787    0.9100 O   0  0  0  0  0  0  0  0  0  0  0  0
   -3.6037    0.5367    0.9551 C   0  0  0  0  0  0  0  0  0  0  0  0
   -3.9952    1.7622    1.4516 C   0  0  0  0  0  0  0  0  0  0  0  0
   -3.0063    2.7416    1.5690 C   0  0  0  0  0  0  0  0  0  0  0  0
   -1.6684    2.4789    1.1913 C   0  0  0  0  0  0  0  0  0  0  0  0
   -1.2897    1.2295    0.6870 C   0  0  0  0  0  0  0  0  0  0  0  0
    0.0162    0.8805    0.2851 N   0  0  0  0  0  0  0  0  0  0  0  0
    1.1443    1.6760    0.2913 C   0  0  0  0  0  0  0  0  0  0  0  0
    1.1906    2.8488    0.6522 O   0  0  0  0  0  0  0  0  0  0  0  0
    2.4072    0.9714   -0.2072 C   0  0  0  0  0  0  0  0  0  0  0  0
    2.7743   -0.2167    0.6881 C   0  0  0  0  0  0  0  0  0  0  0  0
    4.0991   -0.8546    0.2679 C   0  0  0  0  0  0  0  0  0  0  0  0
    4.3242   -0.8576   -1.2453 C   0  0  0  0  0  0  0  0  0  0  0  0
    3.0211   -0.7318   -2.0237 C   0  0  0  0  0  0  0  0  0  0  0  0
    2.2940    0.5719   -1.6894 C   0  0  0  0  0  0  0  0  0  0  0  0
   -2.2946    0.2795    0.5857 C   0  0  0  0  0  0  0  0  0  0  0  0
   -2.2411   -1.1003    0.1056 C   0  0  0  0  0  0  0  0  0  0  0  0
   -1.2237   -1.6244   -0.3117 O   0  0  0  0  0  0  0  0  0  0  0  0
   -4.3766   -2.8786   -1.1511 H   0  0  0  0  0  0  0  0  0  0  0  0
   -4.6035   -3.3446    0.5485 H   0  0  0  0  0  0  0  0  0  0  0  0
   -3.0130   -3.5882   -0.2448 H   0  0  0  0  0  0  0  0  0  0  0  0
   -5.0246    1.9537    1.7369 H   0  0  0  0  0  0  0  0  0  0  0  0
   -3.2636    3.7266    1.9564 H   0  0  0  0  0  0  0  0  0  0  0  0
   -0.9471    3.2843    1.3076 H   0  0  0  0  0  0  0  0  0  0  0  0
    0.1202   -0.0733   -0.0647 H   0  0  0  0  0  0  0  0  0  0  0  0
    3.2202    1.7071   -0.1221 H   0  0  0  0  0  0  0  0  0  0  0  0
    2.8333    0.0957    1.7379 H   0  0  0  0  0  0  0  0  0  0  0  0
    1.9883   -0.9815    0.6472 H   0  0  0  0  0  0  0  0  0  0  0  0
    4.9333   -0.3282    0.7476 H   0  0  0  0  0  0  0  0  0  0  0  0
    4.1297   -1.8828    0.6486 H   0  0  0  0  0  0  0  0  0  0  0  0
    4.9821   -0.0209   -1.5131 H   0  0  0  0  0  0  0  0  0  0  0  0
    4.8530   -1.7722   -1.5367 H   0  0  0  0  0  0  0  0  0  0  0  0
    2.3721   -1.5850   -1.7901 H   0  0  0  0  0  0  0  0  0  0  0  0
    3.2198   -0.7742   -3.1006 H   0  0  0  0  0  0  0  0  0  0  0  0
    1.2524    0.4896   -2.0207 H   0  0  0  0  0  0  0  0  0  0  0  0
    2.7244    1.3828   -2.2921 H   0  0  0  0  0  0  0  0  0  0  0  0
  1  2  1  0
  2  3  1  0
  3  4  2  0
  3  5  1  0
  5  6  2  0
  6  7  1  0
  7  8  2  0
  8  9  1  0
  9 10  1  0
 10 11  1  0
 11 12  2  0
 11 13  1  0
 13 14  1  0
 14 15  1  0
 15 16  1  0
 16 17  1  0
 17 18  1  0
  9 19  2  0
 19 20  1  0
 20 21  2  0
 20  2  1  0
 19  5  1  0
 18 13  1  0
  1 22  1  0
  1 23  1  0
  1 24  1  0
  6 25  1  0
  7 26  1  0
  8 27  1  0
 10 28  1  0
 13 29  1  0
 14 30  1  0
 14 31  1  0
 15 32  1  0
 15 33  1  0
 16 34  1  0
 16 35  1  0
 17 36  1  0
 17 37  1  0
 18 38  1  0
 18 39  1  0
M  END
