
     RDKit          3D

 29 30  0  0  0  0  0  0  0  0999 V2000
   -1.8738    1.8687    1.2809 C   0  0  0  0  0  0  0  0  0  0  0  0
   -1.7791    0.4971    0.8392 N   0  0  0  0  0  0  0  0  0  0  0  0
   -2.1445    0.0931   -0.4117 C   0  0  0  0  0  0  0  0  0  0  0  0
   -2.5659    0.8005   -1.3140 O   0  0  0  0  0  0  0  0  0  0  0  0
   -2.0072   -1.3978   -0.5051 C   0  0  0  0  0  0  0  0  0  0  0  0
   -1.2539   -1.7712    0.7620 C   0  0  0  0  0  0  0  0  0  0  0  0
    0.4780   -2.3321    0.5189 S   0  0  0  0  0  0  0  0  0  0  0  0
    1.2006   -1.0196   -0.4684 C   0  0  0  0  0  0  0  0  0  0  0  0
    1.2902   -1.2737   -1.8488 C   0  0  0  0  0  0  0  0  0  0  0  0
    1.7945   -0.3151   -2.7312 C   0  0  0  0  0  0  0  0  0  0  0  0
    2.2282    0.9143   -2.2490 C   0  0  0  0  0  0  0  0  0  0  0  0
    2.1757    1.1762   -0.8816 C   0  0  0  0  0  0  0  0  0  0  0  0
    1.6871    0.2090    0.0145 C   0  0  0  0  0  0  0  0  0  0  0  0
    1.6915    0.6073    1.4356 C   0  0  0  0  0  0  0  0  0  0  0  0
    1.3728    1.7089    1.8455 O   0  0  0  0  0  0  0  0  0  0  0  0
    2.1330   -0.3627    2.2467 O   0  0  0  0  0  0  0  0  0  0  0  0
   -1.3205   -0.5298    1.6159 C   0  0  0  0  0  0  0  0  0  0  0  0
   -1.0003   -0.4678    2.7947 O   0  0  0  0  0  0  0  0  0  0  0  0
   -1.2634    2.4936    0.6220 H   0  0  0  0  0  0  0  0  0  0  0  0
   -1.5357    1.9771    2.3142 H   0  0  0  0  0  0  0  0  0  0  0  0
   -2.9147    2.1946    1.1955 H   0  0  0  0  0  0  0  0  0  0  0  0
   -3.0158   -1.8266   -0.4926 H   0  0  0  0  0  0  0  0  0  0  0  0
   -1.5143   -1.6924   -1.4334 H   0  0  0  0  0  0  0  0  0  0  0  0
   -1.7845   -2.5775    1.2797 H   0  0  0  0  0  0  0  0  0  0  0  0
    0.9581   -2.2269   -2.2578 H   0  0  0  0  0  0  0  0  0  0  0  0
    1.8439   -0.5300   -3.7963 H   0  0  0  0  0  0  0  0  0  0  0  0
    2.6134    1.6658   -2.9342 H   0  0  0  0  0  0  0  0  0  0  0  0
    2.5255    2.1383   -0.5096 H   0  0  0  0  0  0  0  0  0  0  0  0
    1.9809   -0.0212    3.1530 H   0  0  0  0  0  0  0  0  0  0  0  0
  1  2  1  0
  2  3  1  0
  3  4  2  0
  3  5  1  0
  5  6  1  0
  6  7  1  0
  7  8  1  0
  8  9  2  0
  9 10  1  0
 10 11  2  0
 11 12  1  0
 12 13  2  0
 13 14  1  0
 14 15  2  0
 14 16  1  0
  6 17  1  0
 17 18  2  0
 17  2  1  0
 13  8  1  0
  1 19  1  0
  1 20  1  0
  1 21  1  0
  5 22  1  0
  5 23  1  0
  6 24  1  0
  9 25  1  0
 10 26  1  0
 11 27  1  0
 12 28  1  0
 16 29  1  0
M  END
