
     RDKit          3D

 26 27  0  0  0  0  0  0  0  0999 V2000
   -2.9471   -1.7918   -0.9464 C   0  0  0  0  0  0  0  0  0  0  0  0
   -2.0912   -0.7373   -0.4859 N   0  0  0  0  0  0  0  0  0  0  0  0
   -2.5136    0.5559   -0.1083 C   0  0  0  0  0  0  0  0  0  0  0  0
   -3.6545    0.9892   -0.1192 O   0  0  0  0  0  0  0  0  0  0  0  0
   -1.3467    1.2481    0.2866 N   0  0  0  0  0  0  0  0  0  0  0  0
   -1.3049    2.5997    0.7632 C   0  0  0  0  0  0  0  0  0  0  0  0
   -0.2423    0.3962    0.1563 C   0  0  0  0  0  0  0  0  0  0  0  0
    1.0917    0.6241    0.4259 C   0  0  0  0  0  0  0  0  0  0  0  0
    1.9795   -0.4377    0.1941 C   0  0  0  0  0  0  0  0  0  0  0  0
    3.4377   -0.3042    0.4542 C   0  0  0  0  0  0  0  0  0  0  0  0
    3.9708    0.9549    0.4362 N   0  0  0  0  0  0  0  0  0  0  0  0
    4.1477   -1.2831    0.6435 O   0  0  0  0  0  0  0  0  0  0  0  0
    1.5042   -1.6874   -0.2760 C   0  0  0  0  0  0  0  0  0  0  0  0
    0.1458   -1.8945   -0.5428 C   0  0  0  0  0  0  0  0  0  0  0  0
   -0.7048   -0.8338   -0.3198 C   0  0  0  0  0  0  0  0  0  0  0  0
   -2.8812   -2.6380   -0.2564 H   0  0  0  0  0  0  0  0  0  0  0  0
   -3.9844   -1.4489   -0.9907 H   0  0  0  0  0  0  0  0  0  0  0  0
   -2.6317   -2.1037   -1.9462 H   0  0  0  0  0  0  0  0  0  0  0  0
   -0.6534    3.1923    0.1145 H   0  0  0  0  0  0  0  0  0  0  0  0
   -2.3068    3.0376    0.7579 H   0  0  0  0  0  0  0  0  0  0  0  0
   -0.9173    2.6102    1.7860 H   0  0  0  0  0  0  0  0  0  0  0  0
    1.4237    1.5742    0.8231 H   0  0  0  0  0  0  0  0  0  0  0  0
    3.4986    1.7336    0.0005 H   0  0  0  0  0  0  0  0  0  0  0  0
    4.9813    1.0009    0.4876 H   0  0  0  0  0  0  0  0  0  0  0  0
    2.2080   -2.5044   -0.4342 H   0  0  0  0  0  0  0  0  0  0  0  0
   -0.2092   -2.8523   -0.9037 H   0  0  0  0  0  0  0  0  0  0  0  0
  1  2  1  0
  2  3  1  0
  3  4  2  0
  3  5  1  0
  5  6  1  0
  5  7  1  0
  7  8  2  0
  8  9  1  0
  9 10  1  0
 10 11  1  0
 10 12  2  0
  9 13  2  0
 13 14  1  0
 14 15  2  0
 15  2  1  0
 15  7  1  0
  1 16  1  0
  1 17  1  0
  1 18  1  0
  6 19  1  0
  6 20  1  0
  6 21  1  0
  8 22  1  0
 11 23  1  0
 11 24  1  0
 13 25  1  0
 14 26  1  0
M  END
