
     RDKit          3D

 28 30  0  0  0  0  0  0  0  0999 V2000
   -0.8914    1.9134    1.3331 C   0  0  0  0  0  0  0  0  0  0  0  0
   -1.1714    0.7643    0.5082 N   0  0  0  0  0  0  0  0  0  0  0  0
   -0.2043   -0.0749   -0.0095 C   0  0  0  0  0  0  0  0  0  0  0  0
    1.1053    0.1606    0.2501 N   0  0  0  0  0  0  0  0  0  0  0  0
    1.9238   -0.6885   -0.2852 C   0  0  0  0  0  0  0  0  0  0  0  0
    3.3474   -0.5475   -0.0836 C   0  0  0  0  0  0  0  0  0  0  0  0
    4.0338    0.4103    0.6366 C   0  0  0  0  0  0  0  0  0  0  0  0
    5.4443    0.2090    0.5977 C   0  0  0  0  0  0  0  0  0  0  0  0
    5.7852   -0.8954   -0.1510 C   0  0  0  0  0  0  0  0  0  0  0  0
    4.4103   -1.6799   -0.7997 S   0  0  0  0  0  0  0  0  0  0  0  0
   -0.7696   -1.0308   -0.7196 N   0  0  0  0  0  0  0  0  0  0  0  0
   -2.1208   -0.8047   -0.6590 C   0  0  0  0  0  0  0  0  0  0  0  0
   -3.1706   -1.5299   -1.2426 C   0  0  0  0  0  0  0  0  0  0  0  0
   -4.4858   -1.0982   -1.0355 C   0  0  0  0  0  0  0  0  0  0  0  0
   -4.7504    0.0332   -0.2624 C   0  0  0  0  0  0  0  0  0  0  0  0
   -3.7157    0.7690    0.3276 C   0  0  0  0  0  0  0  0  0  0  0  0
   -2.4073    0.3198    0.1077 C   0  0  0  0  0  0  0  0  0  0  0  0
   -1.8202    2.4127    1.6156 H   0  0  0  0  0  0  0  0  0  0  0  0
   -0.2655    2.6059    0.7640 H   0  0  0  0  0  0  0  0  0  0  0  0
   -0.3717    1.5766    2.2340 H   0  0  0  0  0  0  0  0  0  0  0  0
    1.5825   -1.5397   -0.9060 H   0  0  0  0  0  0  0  0  0  0  0  0
    3.5429    1.2180    1.1667 H   0  0  0  0  0  0  0  0  0  0  0  0
    6.1704    0.8418    1.0932 H   0  0  0  0  0  0  0  0  0  0  0  0
    6.7757   -1.2816   -0.3498 H   0  0  0  0  0  0  0  0  0  0  0  0
   -2.9564   -2.4078   -1.8419 H   0  0  0  0  0  0  0  0  0  0  0  0
   -5.3075   -1.6522   -1.4828 H   0  0  0  0  0  0  0  0  0  0  0  0
   -5.7810    0.3501   -0.1150 H   0  0  0  0  0  0  0  0  0  0  0  0
   -3.9321    1.6467    0.9265 H   0  0  0  0  0  0  0  0  0  0  0  0
  1  2  1  0
  2  3  1  0
  3  4  1  0
  4  5  2  3
  5  6  1  0
  6  7  2  0
  7  8  1  0
  8  9  2  0
  9 10  1  0
  3 11  2  0
 11 12  1  0
 12 13  2  0
 13 14  1  0
 14 15  2  0
 15 16  1  0
 16 17  2  0
 17  2  1  0
 10  6  1  0
 17 12  1  0
  1 18  1  0
  1 19  1  0
  1 20  1  0
  5 21  1  0
  7 22  1  0
  8 23  1  0
  9 24  1  0
 13 25  1  0
 14 26  1  0
 15 27  1  0
 16 28  1  0
M  END
