
     RDKit          3D

 37 40  0  0  0  0  0  0  0  0999 V2000
    1.5531   -0.0290    1.8367 C   0  0  0  0  0  0  0  0  0  0  0  0
    2.1176    0.2266    0.5353 N   0  0  0  0  0  0  0  0  0  0  0  0
    1.4260    0.5785   -0.5996 C   0  0  0  0  0  0  0  0  0  0  0  0
    0.0757    0.6614   -0.6411 N   0  0  0  0  0  0  0  0  0  0  0  0
   -0.6369   -0.6140   -0.7618 C   0  0  0  0  0  0  0  0  0  0  0  0
   -2.1183   -0.4746   -0.9432 C   0  0  0  0  0  0  0  0  0  0  0  0
   -2.8024   -0.4694   -2.1452 C   0  0  0  0  0  0  0  0  0  0  0  0
   -4.1371   -0.3230   -1.8810 N   0  0  0  0  0  0  0  0  0  0  0  0
   -4.3464   -0.2274   -0.5254 C   0  0  0  0  0  0  0  0  0  0  0  0
   -5.5372   -0.0690    0.1938 C   0  0  0  0  0  0  0  0  0  0  0  0
   -5.4478    0.0095    1.5865 C   0  0  0  0  0  0  0  0  0  0  0  0
   -4.2158   -0.0650    2.2312 C   0  0  0  0  0  0  0  0  0  0  0  0
   -3.0351   -0.2241    1.4965 C   0  0  0  0  0  0  0  0  0  0  0  0
   -3.0969   -0.3111    0.0902 C   0  0  0  0  0  0  0  0  0  0  0  0
    2.2383    0.8580   -1.5884 N   0  0  0  0  0  0  0  0  0  0  0  0
    3.5002    0.6222   -1.1032 C   0  0  0  0  0  0  0  0  0  0  0  0
    4.7395    0.7379   -1.7505 C   0  0  0  0  0  0  0  0  0  0  0  0
    5.9050    0.4344   -1.0367 C   0  0  0  0  0  0  0  0  0  0  0  0
    5.8387    0.0251    0.2963 C   0  0  0  0  0  0  0  0  0  0  0  0
    4.6121   -0.0934    0.9606 C   0  0  0  0  0  0  0  0  0  0  0  0
    3.4589    0.2140    0.2276 C   0  0  0  0  0  0  0  0  0  0  0  0
    0.6186    0.5254    1.9523 H   0  0  0  0  0  0  0  0  0  0  0  0
    2.2531    0.3023    2.6079 H   0  0  0  0  0  0  0  0  0  0  0  0
    1.3734   -1.1031    1.9259 H   0  0  0  0  0  0  0  0  0  0  0  0
   -0.2092    1.2297   -1.4387 H   0  0  0  0  0  0  0  0  0  0  0  0
   -0.2354   -1.1758   -1.6169 H   0  0  0  0  0  0  0  0  0  0  0  0
   -0.4522   -1.2308    0.1266 H   0  0  0  0  0  0  0  0  0  0  0  0
   -2.4492   -0.5576   -3.1644 H   0  0  0  0  0  0  0  0  0  0  0  0
   -4.8691   -0.2847   -2.5768 H   0  0  0  0  0  0  0  0  0  0  0  0
   -6.4983   -0.0051   -0.3056 H   0  0  0  0  0  0  0  0  0  0  0  0
   -6.3545    0.1352    2.1739 H   0  0  0  0  0  0  0  0  0  0  0  0
   -4.1682    0.0047    3.3150 H   0  0  0  0  0  0  0  0  0  0  0  0
   -2.0796   -0.2720    2.0092 H   0  0  0  0  0  0  0  0  0  0  0  0
    4.7820    1.0572   -2.7857 H   0  0  0  0  0  0  0  0  0  0  0  0
    6.8708    0.5204   -1.5288 H   0  0  0  0  0  0  0  0  0  0  0  0
    6.7585   -0.2042    0.8307 H   0  0  0  0  0  0  0  0  0  0  0  0
    4.5680   -0.4093    1.9969 H   0  0  0  0  0  0  0  0  0  0  0  0
  1  2  1  0
  2  3  1  0
  3  4  1  0
  4  5  1  0
  5  6  1  0
  6  7  2  0
  7  8  1  0
  8  9  1  0
  9 10  2  0
 10 11  1  0
 11 12  2  0
 12 13  1  0
 13 14  2  0
  3 15  2  0
 15 16  1  0
 16 17  2  0
 17 18  1  0
 18 19  2  0
 19 20  1  0
 20 21  2  0
 21  2  1  0
 14  6  1  0
 21 16  1  0
 14  9  1  0
  1 22  1  0
  1 23  1  0
  1 24  1  0
  4 25  1  0
  5 26  1  0
  5 27  1  0
  7 28  1  0
  8 29  1  0
 10 30  1  0
 11 31  1  0
 12 32  1  0
 13 33  1  0
 17 34  1  0
 18 35  1  0
 19 36  1  0
 20 37  1  0
M  END
