
     RDKit          3D

 40 42  0  0  0  0  0  0  0  0999 V2000
   -2.4885   -1.6508   -0.6665 C   0  0  0  0  0  0  0  0  0  0  0  0
   -2.0191   -0.5554    0.1429 N   0  0  0  0  0  0  0  0  0  0  0  0
   -0.7302   -0.3011    0.5220 C   0  0  0  0  0  0  0  0  0  0  0  0
    0.6385   -1.1851   -0.0501 S   0  0  0  0  0  0  0  0  0  0  0  0
    1.8915   -0.6396    1.1490 C   0  0  0  0  0  0  0  0  0  0  0  0
    3.2435   -1.2219    0.7708 C   0  0  0  0  0  0  0  0  0  0  0  0
    3.5943   -2.3113    1.2341 O   0  0  0  0  0  0  0  0  0  0  0  0
    4.0707   -0.4897   -0.0799 N   0  0  0  0  0  0  0  0  0  0  0  0
    3.5866    0.5642   -0.9819 C   0  0  0  0  0  0  0  0  0  0  0  0
    4.7145    1.5114   -1.4043 C   0  0  0  0  0  0  0  0  0  0  0  0
    5.8238    0.7865   -1.9512 O   0  0  0  0  0  0  0  0  0  0  0  0
    6.3582   -0.1150   -0.9711 C   0  0  0  0  0  0  0  0  0  0  0  0
    5.3081   -1.1360   -0.5284 C   0  0  0  0  0  0  0  0  0  0  0  0
   -0.7010    0.7127    1.3514 N   0  0  0  0  0  0  0  0  0  0  0  0
   -1.9916    1.1518    1.5119 N   0  0  0  0  0  0  0  0  0  0  0  0
   -2.7862    0.4168    0.7521 C   0  0  0  0  0  0  0  0  0  0  0  0
   -4.2307    0.5948    0.6236 C   0  0  0  0  0  0  0  0  0  0  0  0
   -5.0101    0.7525    1.7773 C   0  0  0  0  0  0  0  0  0  0  0  0
   -6.3926    0.9265    1.6834 C   0  0  0  0  0  0  0  0  0  0  0  0
   -7.0074    0.9566    0.4334 C   0  0  0  0  0  0  0  0  0  0  0  0
   -6.2409    0.8221   -0.7228 C   0  0  0  0  0  0  0  0  0  0  0  0
   -4.8577    0.6473   -0.6292 C   0  0  0  0  0  0  0  0  0  0  0  0
   -3.5245   -1.8859   -0.4125 H   0  0  0  0  0  0  0  0  0  0  0  0
   -1.8862   -2.5411   -0.4707 H   0  0  0  0  0  0  0  0  0  0  0  0
   -2.4100   -1.3602   -1.7169 H   0  0  0  0  0  0  0  0  0  0  0  0
    1.6282   -1.0177    2.1434 H   0  0  0  0  0  0  0  0  0  0  0  0
    1.9477    0.4486    1.2304 H   0  0  0  0  0  0  0  0  0  0  0  0
    3.1823    0.0533   -1.8640 H   0  0  0  0  0  0  0  0  0  0  0  0
    2.7802    1.1423   -0.5284 H   0  0  0  0  0  0  0  0  0  0  0  0
    4.3537    2.2017   -2.1731 H   0  0  0  0  0  0  0  0  0  0  0  0
    5.0633    2.1100   -0.5543 H   0  0  0  0  0  0  0  0  0  0  0  0
    7.2140   -0.6289   -1.4198 H   0  0  0  0  0  0  0  0  0  0  0  0
    6.7268    0.4655   -0.1169 H   0  0  0  0  0  0  0  0  0  0  0  0
    5.0341   -1.7804   -1.3727 H   0  0  0  0  0  0  0  0  0  0  0  0
    5.7198   -1.7714    0.2626 H   0  0  0  0  0  0  0  0  0  0  0  0
   -4.5385    0.7426    2.7588 H   0  0  0  0  0  0  0  0  0  0  0  0
   -6.9861    1.0459    2.5863 H   0  0  0  0  0  0  0  0  0  0  0  0
   -8.0829    1.0981    0.3605 H   0  0  0  0  0  0  0  0  0  0  0  0
   -6.7193    0.8652   -1.6981 H   0  0  0  0  0  0  0  0  0  0  0  0
   -4.2760    0.5751   -1.5447 H   0  0  0  0  0  0  0  0  0  0  0  0
  1  2  1  0
  2  3  1  0
  3  4  1  0
  4  5  1  0
  5  6  1  0
  6  7  2  0
  6  8  1  0
  8  9  1  0
  9 10  1  0
 10 11  1  0
 11 12  1  0
 12 13  1  0
  3 14  2  0
 14 15  1  0
 15 16  2  0
 16 17  1  0
 17 18  2  0
 18 19  1  0
 19 20  2  0
 20 21  1  0
 21 22  2  0
 16  2  1  0
 22 17  1  0
 13  8  1  0
  1 23  1  0
  1 24  1  0
  1 25  1  0
  5 26  1  0
  5 27  1  0
  9 28  1  0
  9 29  1  0
 10 30  1  0
 10 31  1  0
 12 32  1  0
 12 33  1  0
 13 34  1  0
 13 35  1  0
 18 36  1  0
 19 37  1  0
 20 38  1  0
 21 39  1  0
 22 40  1  0
M  END
