
     RDKit          3D

 34 36  0  0  0  0  0  0  0  0999 V2000
   -1.3247    0.8398    1.8963 C   0  0  0  0  0  0  0  0  0  0  0  0
   -0.8585    1.1442    0.5681 N   0  0  0  0  0  0  0  0  0  0  0  0
    0.2424    1.8743    0.2120 C   0  0  0  0  0  0  0  0  0  0  0  0
    1.3942    2.5559    1.3063 S   0  0  0  0  0  0  0  0  0  0  0  0
    2.3324    1.0802    1.7969 C   0  0  0  0  0  0  0  0  0  0  0  0
    2.9764    0.3468    0.6540 C   0  0  0  0  0  0  0  0  0  0  0  0
    4.0980    0.8685   -0.0069 C   0  0  0  0  0  0  0  0  0  0  0  0
    4.6746    0.1760   -1.0750 C   0  0  0  0  0  0  0  0  0  0  0  0
    4.1381   -1.0416   -1.4947 C   0  0  0  0  0  0  0  0  0  0  0  0
    3.0231   -1.5685   -0.8463 C   0  0  0  0  0  0  0  0  0  0  0  0
    2.4539   -0.8744    0.2169 C   0  0  0  0  0  0  0  0  0  0  0  0
    1.3821   -1.3982    0.8308 F   0  0  0  0  0  0  0  0  0  0  0  0
    0.2985    1.9938   -1.0913 N   0  0  0  0  0  0  0  0  0  0  0  0
   -0.7587    1.2960   -1.6145 N   0  0  0  0  0  0  0  0  0  0  0  0
   -1.4557    0.7627   -0.6211 C   0  0  0  0  0  0  0  0  0  0  0  0
   -2.6455   -0.0775   -0.7912 C   0  0  0  0  0  0  0  0  0  0  0  0
   -3.1645   -0.3196   -2.0612 C   0  0  0  0  0  0  0  0  0  0  0  0
   -4.2910   -1.1282   -2.1889 C   0  0  0  0  0  0  0  0  0  0  0  0
   -4.8668   -1.6738   -1.0493 C   0  0  0  0  0  0  0  0  0  0  0  0
   -4.2889   -1.3860    0.1753 C   0  0  0  0  0  0  0  0  0  0  0  0
   -3.1968   -0.6035    0.3305 N   0  0  0  0  0  0  0  0  0  0  0  0
   -1.2179   -0.2344    2.0667 H   0  0  0  0  0  0  0  0  0  0  0  0
   -0.7442    1.3775    2.6475 H   0  0  0  0  0  0  0  0  0  0  0  0
   -2.3663    1.1577    1.9889 H   0  0  0  0  0  0  0  0  0  0  0  0
    1.6764    0.4150    2.3694 H   0  0  0  0  0  0  0  0  0  0  0  0
    3.1147    1.3970    2.4967 H   0  0  0  0  0  0  0  0  0  0  0  0
    4.5205    1.8241    0.2968 H   0  0  0  0  0  0  0  0  0  0  0  0
    5.5375    0.5938   -1.5882 H   0  0  0  0  0  0  0  0  0  0  0  0
    4.5830   -1.5730   -2.3318 H   0  0  0  0  0  0  0  0  0  0  0  0
    2.5890   -2.5099   -1.1667 H   0  0  0  0  0  0  0  0  0  0  0  0
   -2.6980    0.1140   -2.9415 H   0  0  0  0  0  0  0  0  0  0  0  0
   -4.7109   -1.3291   -3.1704 H   0  0  0  0  0  0  0  0  0  0  0  0
   -5.7435   -2.3086   -1.1140 H   0  0  0  0  0  0  0  0  0  0  0  0
   -4.7028   -1.7911    1.0946 H   0  0  0  0  0  0  0  0  0  0  0  0
  1  2  1  0
  2  3  1  0
  3  4  1  0
  4  5  1  0
  5  6  1  0
  6  7  2  0
  7  8  1  0
  8  9  2  0
  9 10  1  0
 10 11  2  0
 11 12  1  0
  3 13  2  0
 13 14  1  0
 14 15  2  0
 15 16  1  0
 16 17  2  0
 17 18  1  0
 18 19  2  0
 19 20  1  0
 20 21  2  0
 15  2  1  0
 21 16  1  0
 11  6  1  0
  1 22  1  0
  1 23  1  0
  1 24  1  0
  5 25  1  0
  5 26  1  0
  7 27  1  0
  8 28  1  0
  9 29  1  0
 10 30  1  0
 17 31  1  0
 18 32  1  0
 19 33  1  0
 20 34  1  0
M  END
