
     RDKit          3D

 40 42  0  0  0  0  0  0  0  0999 V2000
    3.7756    2.2159    1.3139 C   0  0  0  0  0  0  0  0  0  0  0  0
    3.1129    1.0289    0.7866 N   0  0  0  0  0  0  0  0  0  0  0  0
    1.7762    1.0961    0.4331 C   0  0  0  0  0  0  0  0  0  0  0  0
    1.1510    0.0012   -0.0325 C   0  0  0  0  0  0  0  0  0  0  0  0
    1.8909   -1.2644   -0.1932 C   0  0  0  0  0  0  0  0  0  0  0  0
    1.3448   -2.2330   -0.7196 O   0  0  0  0  0  0  0  0  0  0  0  0
    3.1930   -1.2704    0.2574 N   0  0  0  0  0  0  0  0  0  0  0  0
    3.9550   -2.4983    0.1365 C   0  0  0  0  0  0  0  0  0  0  0  0
    3.8668   -0.1394    0.6928 C   0  0  0  0  0  0  0  0  0  0  0  0
    5.0689   -0.1726    0.9685 O   0  0  0  0  0  0  0  0  0  0  0  0
   -0.3024   -0.0083   -0.4435 C   0  0  0  0  0  0  0  0  0  0  0  0
   -1.0906    1.1330    0.0656 N   0  0  0  0  0  0  0  0  0  0  0  0
   -2.3810    1.2933   -0.6287 C   0  0  0  0  0  0  0  0  0  0  0  0
   -3.3950    0.1396   -0.4965 C   0  0  0  0  0  0  0  0  0  0  0  0
   -3.6401   -0.3795    0.9108 C   0  0  0  0  0  0  0  0  0  0  0  0
   -4.2085   -1.7480    0.6231 C   0  0  0  0  0  0  0  0  0  0  0  0
   -3.3970   -2.1879   -0.5788 C   0  0  0  0  0  0  0  0  0  0  0  0
   -3.0225   -0.9994   -1.2947 O   0  0  0  0  0  0  0  0  0  0  0  0
   -0.2841    2.3427   -0.0456 C   0  0  0  0  0  0  0  0  0  0  0  0
    1.0460    2.2708    0.5247 N   0  0  0  0  0  0  0  0  0  0  0  0
    3.1960    2.6182    2.1514 H   0  0  0  0  0  0  0  0  0  0  0  0
    4.7841    2.0042    1.6796 H   0  0  0  0  0  0  0  0  0  0  0  0
    3.8520    2.9637    0.5180 H   0  0  0  0  0  0  0  0  0  0  0  0
    3.3033   -3.3757    0.0951 H   0  0  0  0  0  0  0  0  0  0  0  0
    4.6371   -2.6087    0.9853 H   0  0  0  0  0  0  0  0  0  0  0  0
    4.5452   -2.4485   -0.7842 H   0  0  0  0  0  0  0  0  0  0  0  0
   -0.3408   -0.0459   -1.5404 H   0  0  0  0  0  0  0  0  0  0  0  0
   -0.7567   -0.9251   -0.0549 H   0  0  0  0  0  0  0  0  0  0  0  0
   -2.2047    1.4799   -1.6965 H   0  0  0  0  0  0  0  0  0  0  0  0
   -2.8706    2.1872   -0.2205 H   0  0  0  0  0  0  0  0  0  0  0  0
   -4.3485    0.4911   -0.9135 H   0  0  0  0  0  0  0  0  0  0  0  0
   -4.3174    0.2580    1.4857 H   0  0  0  0  0  0  0  0  0  0  0  0
   -2.7083   -0.4875    1.4762 H   0  0  0  0  0  0  0  0  0  0  0  0
   -4.1333   -2.4415    1.4648 H   0  0  0  0  0  0  0  0  0  0  0  0
   -5.2660   -1.6601    0.3471 H   0  0  0  0  0  0  0  0  0  0  0  0
   -2.4777   -2.6973   -0.2717 H   0  0  0  0  0  0  0  0  0  0  0  0
   -3.9581   -2.8533   -1.2409 H   0  0  0  0  0  0  0  0  0  0  0  0
   -0.8056    3.1659    0.4570 H   0  0  0  0  0  0  0  0  0  0  0  0
   -0.1816    2.6385   -1.0991 H   0  0  0  0  0  0  0  0  0  0  0  0
    1.5919    3.1167    0.4273 H   0  0  0  0  0  0  0  0  0  0  0  0
  1  2  1  0
  2  3  1  0
  3  4  2  0
  4  5  1  0
  5  6  2  0
  5  7  1  0
  7  8  1  0
  7  9  1  0
  9 10  2  0
  4 11  1  0
 11 12  1  0
 12 13  1  0
 13 14  1  0
 14 15  1  0
 15 16  1  0
 16 17  1  0
 17 18  1  0
 12 19  1  0
 19 20  1  0
  9  2  1  0
 18 14  1  0
 20  3  1  0
  1 21  1  0
  1 22  1  0
  1 23  1  0
  8 24  1  0
  8 25  1  0
  8 26  1  0
 11 27  1  0
 11 28  1  0
 13 29  1  0
 13 30  1  0
 14 31  1  0
 15 32  1  0
 15 33  1  0
 16 34  1  0
 16 35  1  0
 17 36  1  0
 17 37  1  0
 19 38  1  0
 19 39  1  0
 20 40  1  0
M  END
