
     RDKit          3D

 31 33  0  0  0  0  0  0  0  0999 V2000
   -0.0203   -1.1003    2.4433 C   0  0  0  0  0  0  0  0  0  0  0  0
   -0.0061   -0.5318    1.1214 N   0  0  0  0  0  0  0  0  0  0  0  0
   -1.1155   -0.3262    0.3452 C   0  0  0  0  0  0  0  0  0  0  0  0
   -2.5257   -0.4767    0.2964 C   0  0  0  0  0  0  0  0  0  0  0  0
   -3.0237   -0.0198   -0.9295 C   0  0  0  0  0  0  0  0  0  0  0  0
   -4.3607    0.0291   -1.4361 C   0  0  0  0  0  0  0  0  0  0  0  0
   -5.3177   -0.8935   -1.2133 C   0  0  0  0  0  0  0  0  0  0  0  0
   -6.6000   -0.6977   -1.8028 C   0  0  0  0  0  0  0  0  0  0  0  0
   -7.6373   -0.5163   -2.2899 N   0  0  0  0  0  0  0  0  0  0  0  0
   -5.1213   -2.0741   -0.4441 C   0  0  0  0  0  0  0  0  0  0  0  0
   -4.9638   -3.0297    0.1956 N   0  0  0  0  0  0  0  0  0  0  0  0
   -1.7606    0.6334   -1.9736 S   0  0  0  0  0  0  0  0  0  0  0  0
   -0.6585    0.2394   -0.7898 C   0  0  0  0  0  0  0  0  0  0  0  0
    0.6790    0.3842   -0.7130 C   0  0  0  0  0  0  0  0  0  0  0  0
    1.7999    1.0081   -1.7739 S   0  0  0  0  0  0  0  0  0  0  0  0
    3.0411    0.6665   -0.5677 C   0  0  0  0  0  0  0  0  0  0  0  0
    4.3842    1.0154   -0.9157 C   0  0  0  0  0  0  0  0  0  0  0  0
    5.3231    1.4674   -0.0609 C   0  0  0  0  0  0  0  0  0  0  0  0
    6.6149    1.7801   -0.5746 C   0  0  0  0  0  0  0  0  0  0  0  0
    7.6603    2.0254   -1.0140 N   0  0  0  0  0  0  0  0  0  0  0  0
    5.0985    1.6807    1.3276 C   0  0  0  0  0  0  0  0  0  0  0  0
    4.9180    1.8407    2.4630 N   0  0  0  0  0  0  0  0  0  0  0  0
    2.5227    0.0547    0.5798 C   0  0  0  0  0  0  0  0  0  0  0  0
    1.1149   -0.0871    0.4723 C   0  0  0  0  0  0  0  0  0  0  0  0
    0.9211   -1.6265    2.6213 H   0  0  0  0  0  0  0  0  0  0  0  0
   -0.8499   -1.8075    2.5247 H   0  0  0  0  0  0  0  0  0  0  0  0
   -0.1427   -0.2879    3.1640 H   0  0  0  0  0  0  0  0  0  0  0  0
   -3.1215   -0.8873    1.1022 H   0  0  0  0  0  0  0  0  0  0  0  0
   -4.5979    0.8773   -2.0807 H   0  0  0  0  0  0  0  0  0  0  0  0
    4.6423    0.9310   -1.9729 H   0  0  0  0  0  0  0  0  0  0  0  0
    3.1032   -0.2710    1.4340 H   0  0  0  0  0  0  0  0  0  0  0  0
  1  2  1  0
  2  3  1  0
  3  4  1  0
  4  5  2  0
  5  6  1  0
  6  7  2  3
  7  8  1  0
  8  9  3  0
  7 10  1  0
 10 11  3  0
  5 12  1  0
 12 13  1  0
 13 14  1  0
 14 15  1  0
 15 16  1  0
 16 17  1  0
 17 18  2  3
 18 19  1  0
 19 20  3  0
 18 21  1  0
 21 22  3  0
 16 23  2  0
 23 24  1  0
 24  2  1  0
 13  3  2  0
 24 14  2  0
  1 25  1  0
  1 26  1  0
  1 27  1  0
  4 28  1  0
  6 29  1  0
 17 30  1  0
 23 31  1  0
M  END
