
     RDKit          3D

 49 55  0  0  0  0  0  0  0  0999 V2000
   -4.1091   -2.5041   -1.3543 C   0  0  0  0  0  0  0  0  0  0  0  0
   -4.6072   -1.2959   -0.7317 N   0  0  0  0  0  0  0  0  0  0  0  0
   -5.9302   -0.8995   -0.7268 C   0  0  0  0  0  0  0  0  0  0  0  0
   -7.0824   -1.5023   -1.2604 C   0  0  0  0  0  0  0  0  0  0  0  0
   -8.3067   -0.8463   -1.1006 C   0  0  0  0  0  0  0  0  0  0  0  0
   -8.3846    0.3695   -0.4303 C   0  0  0  0  0  0  0  0  0  0  0  0
   -7.2343    0.9599    0.1018 C   0  0  0  0  0  0  0  0  0  0  0  0
   -5.9856    0.3179   -0.0448 C   0  0  0  0  0  0  0  0  0  0  0  0
   -4.6582    0.6377    0.3794 C   0  0  0  0  0  0  0  0  0  0  0  0
   -4.1006    1.7115    1.1028 C   0  0  0  0  0  0  0  0  0  0  0  0
   -2.7264    1.7265    1.3751 C   0  0  0  0  0  0  0  0  0  0  0  0
   -1.8887    0.6939    0.9399 C   0  0  0  0  0  0  0  0  0  0  0  0
   -0.4548    0.7364    1.2587 C   0  0  0  0  0  0  0  0  0  0  0  0
    0.1520    1.0269    2.4659 C   0  0  0  0  0  0  0  0  0  0  0  0
    1.5752    0.9833    2.3893 C   0  0  0  0  0  0  0  0  0  0  0  0
    2.0253    0.6539    1.1258 C   0  0  0  0  0  0  0  0  0  0  0  0
    3.3947    0.5377    0.6564 C   0  0  0  0  0  0  0  0  0  0  0  0
    4.3718    1.5183    0.8452 C   0  0  0  0  0  0  0  0  0  0  0  0
    5.6853    1.4716    0.4449 N   0  0  0  0  0  0  0  0  0  0  0  0
    6.1860    0.3770   -0.2198 C   0  0  0  0  0  0  0  0  0  0  0  0
    7.5871    0.3707   -0.6351 C   0  0  0  0  0  0  0  0  0  0  0  0
    8.2427   -0.4301   -1.5576 C   0  0  0  0  0  0  0  0  0  0  0  0
    9.6310   -0.1263   -1.6798 C   0  0  0  0  0  0  0  0  0  0  0  0
   10.0056    0.9015   -0.8482 C   0  0  0  0  0  0  0  0  0  0  0  0
    8.6928    1.4921    0.0680 S   0  0  0  0  0  0  0  0  0  0  0  0
    5.2877   -0.6872   -0.4563 C   0  0  0  0  0  0  0  0  0  0  0  0
    5.4547   -1.8796   -1.0496 N   0  0  0  0  0  0  0  0  0  0  0  0
    4.2349   -2.5196   -0.9805 O   0  0  0  0  0  0  0  0  0  0  0  0
    3.2874   -1.7469   -0.3440 N   0  0  0  0  0  0  0  0  0  0  0  0
    3.8964   -0.5979   -0.0114 C   0  0  0  0  0  0  0  0  0  0  0  0
    0.7167    0.4417    0.0417 S   0  0  0  0  0  0  0  0  0  0  0  0
   -2.4370   -0.3830    0.2211 C   0  0  0  0  0  0  0  0  0  0  0  0
   -3.8180   -0.3880   -0.0522 C   0  0  0  0  0  0  0  0  0  0  0  0
   -4.0775   -3.2882   -0.5941 H   0  0  0  0  0  0  0  0  0  0  0  0
   -3.1108   -2.3196   -1.7584 H   0  0  0  0  0  0  0  0  0  0  0  0
   -4.7655   -2.7958   -2.1769 H   0  0  0  0  0  0  0  0  0  0  0  0
   -7.0388   -2.4515   -1.7842 H   0  0  0  0  0  0  0  0  0  0  0  0
   -9.2104   -1.2948   -1.5068 H   0  0  0  0  0  0  0  0  0  0  0  0
   -9.3452    0.8650   -0.3159 H   0  0  0  0  0  0  0  0  0  0  0  0
   -7.3037    1.9075    0.6275 H   0  0  0  0  0  0  0  0  0  0  0  0
   -4.7318    2.5245    1.4492 H   0  0  0  0  0  0  0  0  0  0  0  0
   -2.3173    2.5693    1.9281 H   0  0  0  0  0  0  0  0  0  0  0  0
   -0.4011    1.2505    3.3705 H   0  0  0  0  0  0  0  0  0  0  0  0
    2.2302    1.1737    3.2316 H   0  0  0  0  0  0  0  0  0  0  0  0
    4.1148    2.4480    1.3544 H   0  0  0  0  0  0  0  0  0  0  0  0
    7.7563   -1.2071   -2.1355 H   0  0  0  0  0  0  0  0  0  0  0  0
   10.3161   -0.6368   -2.3457 H   0  0  0  0  0  0  0  0  0  0  0  0
   10.9885    1.3378   -0.7339 H   0  0  0  0  0  0  0  0  0  0  0  0
   -1.8072   -1.2039   -0.1086 H   0  0  0  0  0  0  0  0  0  0  0  0
  1  2  1  0
  2  3  1  0
  3  4  2  0
  4  5  1  0
  5  6  2  0
  6  7  1  0
  7  8  2  0
  8  9  1  0
  9 10  2  0
 10 11  1  0
 11 12  2  0
 12 13  1  0
 13 14  2  0
 14 15  1  0
 15 16  2  0
 16 17  1  0
 17 18  2  0
 18 19  1  0
 19 20  2  0
 20 21  1  0
 21 22  2  0
 22 23  1  0
 23 24  2  0
 24 25  1  0
 20 26  1  0
 26 27  2  0
 27 28  1  0
 28 29  1  0
 29 30  2  0
 16 31  1  0
 12 32  1  0
 32 33  2  0
 33  2  1  0
  8  3  1  0
 33  9  1  0
 31 13  1  0
 30 17  1  0
 25 21  1  0
 30 26  1  0
  1 34  1  0
  1 35  1  0
  1 36  1  0
  4 37  1  0
  5 38  1  0
  6 39  1  0
  7 40  1  0
 10 41  1  0
 11 42  1  0
 14 43  1  0
 15 44  1  0
 18 45  1  0
 22 46  1  0
 23 47  1  0
 24 48  1  0
 32 49  1  0
M  END
