
     RDKit          3D

 48 53  0  0  0  0  0  0  0  0999 V2000
    4.0858   -2.5564    1.5111 C   0  0  0  0  0  0  0  0  0  0  0  0
    3.7309   -1.4524    0.6207 N   0  0  0  0  0  0  0  0  0  0  0  0
    4.7559   -0.5563    0.2133 C   0  0  0  0  0  0  0  0  0  0  0  0
    6.1258   -0.8450    0.3747 C   0  0  0  0  0  0  0  0  0  0  0  0
    7.1137    0.0762    0.0236 C   0  0  0  0  0  0  0  0  0  0  0  0
    6.7521    1.3086   -0.4972 C   0  0  0  0  0  0  0  0  0  0  0  0
    5.4044    1.6050   -0.7045 C   0  0  0  0  0  0  0  0  0  0  0  0
    4.3889    0.6774   -0.3991 C   0  0  0  0  0  0  0  0  0  0  0  0
    3.0173    0.9343   -0.6558 N   0  0  0  0  0  0  0  0  0  0  0  0
    2.6626    1.9973   -1.5971 C   0  0  0  0  0  0  0  0  0  0  0  0
    1.9935    0.0371   -0.2471 C   0  0  0  0  0  0  0  0  0  0  0  0
    0.6219    0.3323   -0.4057 C   0  0  0  0  0  0  0  0  0  0  0  0
   -0.4009   -0.5694   -0.0585 C   0  0  0  0  0  0  0  0  0  0  0  0
   -1.8226   -0.2093   -0.2494 C   0  0  0  0  0  0  0  0  0  0  0  0
   -2.8231   -0.6417    0.6236 C   0  0  0  0  0  0  0  0  0  0  0  0
   -4.1230   -0.2283    0.3277 C   0  0  0  0  0  0  0  0  0  0  0  0
   -5.3095   -0.4735    0.9774 N   0  0  0  0  0  0  0  0  0  0  0  0
   -6.3560    0.1355    0.3264 C   0  0  0  0  0  0  0  0  0  0  0  0
   -7.7178    0.1558    0.6201 C   0  0  0  0  0  0  0  0  0  0  0  0
   -8.4969    0.8833   -0.2666 C   0  0  0  0  0  0  0  0  0  0  0  0
   -8.0286    1.5425   -1.3489 N   0  0  0  0  0  0  0  0  0  0  0  0
   -6.6989    1.5079   -1.6133 C   0  0  0  0  0  0  0  0  0  0  0  0
   -5.8242    0.8000   -0.7790 C   0  0  0  0  0  0  0  0  0  0  0  0
   -4.4127    0.5713   -0.7750 C   0  0  0  0  0  0  0  0  0  0  0  0
   -3.3548    0.9675   -1.5980 C   0  0  0  0  0  0  0  0  0  0  0  0
   -2.0838    0.5801   -1.3244 N   0  0  0  0  0  0  0  0  0  0  0  0
   -0.0086   -1.8106    0.4521 C   0  0  0  0  0  0  0  0  0  0  0  0
    1.3420   -2.1149    0.6591 C   0  0  0  0  0  0  0  0  0  0  0  0
    2.3604   -1.1936    0.3617 C   0  0  0  0  0  0  0  0  0  0  0  0
    3.2895   -2.8073    2.2200 H   0  0  0  0  0  0  0  0  0  0  0  0
    4.9347   -2.3167    2.1612 H   0  0  0  0  0  0  0  0  0  0  0  0
    4.3293   -3.4504    0.9274 H   0  0  0  0  0  0  0  0  0  0  0  0
    6.4567   -1.8005    0.7677 H   0  0  0  0  0  0  0  0  0  0  0  0
    8.1621   -0.1699    0.1675 H   0  0  0  0  0  0  0  0  0  0  0  0
    7.5144    2.0400   -0.7511 H   0  0  0  0  0  0  0  0  0  0  0  0
    5.1667    2.5875   -1.0987 H   0  0  0  0  0  0  0  0  0  0  0  0
    1.8335    1.7145   -2.2560 H   0  0  0  0  0  0  0  0  0  0  0  0
    3.4699    2.2398   -2.2963 H   0  0  0  0  0  0  0  0  0  0  0  0
    2.3878    2.9072   -1.0532 H   0  0  0  0  0  0  0  0  0  0  0  0
    0.3172    1.2996   -0.7977 H   0  0  0  0  0  0  0  0  0  0  0  0
   -2.6058   -1.2482    1.4938 H   0  0  0  0  0  0  0  0  0  0  0  0
   -5.4006   -1.0264    1.8177 H   0  0  0  0  0  0  0  0  0  0  0  0
   -8.1452   -0.3540    1.4735 H   0  0  0  0  0  0  0  0  0  0  0  0
   -9.5718    0.9575   -0.1205 H   0  0  0  0  0  0  0  0  0  0  0  0
   -6.3707    2.0517   -2.4917 H   0  0  0  0  0  0  0  0  0  0  0  0
   -3.4863    1.5902   -2.4754 H   0  0  0  0  0  0  0  0  0  0  0  0
   -0.7483   -2.5718    0.6881 H   0  0  0  0  0  0  0  0  0  0  0  0
    1.5732   -3.1035    1.0417 H   0  0  0  0  0  0  0  0  0  0  0  0
  1  2  1  0
  2  3  1  0
  3  4  2  0
  4  5  1  0
  5  6  2  0
  6  7  1  0
  7  8  2  0
  8  9  1  0
  9 10  1  0
  9 11  1  0
 11 12  2  0
 12 13  1  0
 13 14  1  0
 14 15  2  0
 15 16  1  0
 16 17  1  0
 17 18  1  0
 18 19  2  0
 19 20  1  0
 20 21  2  0
 21 22  1  0
 22 23  2  0
 23 24  1  0
 24 25  1  0
 25 26  2  0
 13 27  2  0
 27 28  1  0
 28 29  2  0
 29  2  1  0
  8  3  1  0
 29 11  1  0
 26 14  1  0
 24 16  2  0
 23 18  1  0
  1 30  1  0
  1 31  1  0
  1 32  1  0
  4 33  1  0
  5 34  1  0
  6 35  1  0
  7 36  1  0
 10 37  1  0
 10 38  1  0
 10 39  1  0
 12 40  1  0
 15 41  1  0
 17 42  1  0
 19 43  1  0
 20 44  1  0
 22 45  1  0
 25 46  1  0
 27 47  1  0
 28 48  1  0
M  END
