
     RDKit          3D

 46 50  0  0  0  0  0  0  0  0999 V2000
   -3.6624    2.5303    1.2162 C   0  0  0  0  0  0  0  0  0  0  0  0
   -3.2365    1.2429    0.6769 N   0  0  0  0  0  0  0  0  0  0  0  0
   -4.2195    0.2924    0.2974 C   0  0  0  0  0  0  0  0  0  0  0  0
   -5.5748    0.4115    0.6589 C   0  0  0  0  0  0  0  0  0  0  0  0
   -6.5161   -0.5468    0.2798 C   0  0  0  0  0  0  0  0  0  0  0  0
   -6.1184   -1.6532   -0.4563 C   0  0  0  0  0  0  0  0  0  0  0  0
   -4.7782   -1.8041   -0.8154 C   0  0  0  0  0  0  0  0  0  0  0  0
   -3.8107   -0.8452   -0.4600 C   0  0  0  0  0  0  0  0  0  0  0  0
   -2.4392   -0.9773   -0.7985 N   0  0  0  0  0  0  0  0  0  0  0  0
   -2.0468   -1.9592   -1.8043 C   0  0  0  0  0  0  0  0  0  0  0  0
   -1.4424   -0.1812   -0.1769 C   0  0  0  0  0  0  0  0  0  0  0  0
   -0.0679   -0.4877   -0.2524 C   0  0  0  0  0  0  0  0  0  0  0  0
    0.9143    0.2980    0.3748 C   0  0  0  0  0  0  0  0  0  0  0  0
    2.3421   -0.0497    0.2795 C   0  0  0  0  0  0  0  0  0  0  0  0
    2.7980   -1.3353    0.6198 C   0  0  0  0  0  0  0  0  0  0  0  0
    4.1528   -1.6702    0.5299 C   0  0  0  0  0  0  0  0  0  0  0  0
    5.0793   -0.7175    0.0971 C   0  0  0  0  0  0  0  0  0  0  0  0
    4.6488    0.5635   -0.2416 C   0  0  0  0  0  0  0  0  0  0  0  0
    3.2889    0.8951   -0.1520 C   0  0  0  0  0  0  0  0  0  0  0  0
    5.6177    1.5807   -0.6959 C   0  0  0  0  0  0  0  0  0  0  0  0
    5.2733    2.7170   -0.9925 O   0  0  0  0  0  0  0  0  0  0  0  0
    7.0381    1.1884   -0.7823 C   0  0  0  0  0  0  0  0  0  0  0  0
    7.4496   -0.0398   -0.4592 C   0  0  0  0  0  0  0  0  0  0  0  0
    6.5078   -1.0780    0.0028 C   0  0  0  0  0  0  0  0  0  0  0  0
    6.9142   -2.1954    0.2927 O   0  0  0  0  0  0  0  0  0  0  0  0
    0.4918    1.4124    1.1040 C   0  0  0  0  0  0  0  0  0  0  0  0
   -0.8657    1.7300    1.2102 C   0  0  0  0  0  0  0  0  0  0  0  0
   -1.8517    0.9558    0.5765 C   0  0  0  0  0  0  0  0  0  0  0  0
   -4.6072    2.8719    0.7785 H   0  0  0  0  0  0  0  0  0  0  0  0
   -2.9577    3.3347    0.9767 H   0  0  0  0  0  0  0  0  0  0  0  0
   -3.7768    2.4733    2.3040 H   0  0  0  0  0  0  0  0  0  0  0  0
   -5.9247    1.2400    1.2655 H   0  0  0  0  0  0  0  0  0  0  0  0
   -7.5559   -0.4325    0.5742 H   0  0  0  0  0  0  0  0  0  0  0  0
   -6.8452   -2.4093   -0.7407 H   0  0  0  0  0  0  0  0  0  0  0  0
   -4.5058   -2.7035   -1.3574 H   0  0  0  0  0  0  0  0  0  0  0  0
   -1.1709   -1.6366   -2.3787 H   0  0  0  0  0  0  0  0  0  0  0  0
   -2.8203   -2.1061   -2.5666 H   0  0  0  0  0  0  0  0  0  0  0  0
   -1.8260   -2.9237   -1.3349 H   0  0  0  0  0  0  0  0  0  0  0  0
    0.2610   -1.3664   -0.7988 H   0  0  0  0  0  0  0  0  0  0  0  0
    2.0943   -2.0885    0.9730 H   0  0  0  0  0  0  0  0  0  0  0  0
    4.4784   -2.6728    0.8022 H   0  0  0  0  0  0  0  0  0  0  0  0
    2.9643    1.8974   -0.4324 H   0  0  0  0  0  0  0  0  0  0  0  0
    7.7276    1.9531   -1.1213 H   0  0  0  0  0  0  0  0  0  0  0  0
    8.4922   -0.3300   -0.5210 H   0  0  0  0  0  0  0  0  0  0  0  0
    1.2156    2.0375    1.6232 H   0  0  0  0  0  0  0  0  0  0  0  0
   -1.1292    2.5841    1.8253 H   0  0  0  0  0  0  0  0  0  0  0  0
  1  2  1  0
  2  3  1  0
  3  4  2  0
  4  5  1  0
  5  6  2  0
  6  7  1  0
  7  8  2  0
  8  9  1  0
  9 10  1  0
  9 11  1  0
 11 12  2  0
 12 13  1  0
 13 14  1  0
 14 15  2  0
 15 16  1  0
 16 17  2  0
 17 18  1  0
 18 19  2  0
 18 20  1  0
 20 21  2  0
 20 22  1  0
 22 23  2  0
 23 24  1  0
 24 25  2  0
 13 26  2  0
 26 27  1  0
 27 28  2  0
 28  2  1  0
  8  3  1  0
 28 11  1  0
 19 14  1  0
 24 17  1  0
  1 29  1  0
  1 30  1  0
  1 31  1  0
  4 32  1  0
  5 33  1  0
  6 34  1  0
  7 35  1  0
 10 36  1  0
 10 37  1  0
 10 38  1  0
 12 39  1  0
 15 40  1  0
 16 41  1  0
 19 42  1  0
 22 43  1  0
 23 44  1  0
 26 45  1  0
 27 46  1  0
M  END
