
     RDKit          3D

 50 57  0  0  0  0  0  0  0  0999 V2000
   -5.3787   -1.7872    0.7275 Si  0  0  0  0  0  4  0  0  0  0  0  0
   -6.5282   -0.6379   -0.1406 C   0  0  0  0  0  0  0  0  0  0  0  0
   -5.8944    0.4334   -0.6404 C   0  0  0  0  0  0  0  0  0  0  0  0
   -4.4248    0.4740   -0.4001 C   0  0  0  0  0  0  0  0  0  0  0  0
   -3.9241   -0.6374    0.3286 C   0  0  0  0  0  0  0  0  0  0  0  0
   -2.5354   -0.7816    0.5911 C   0  0  0  0  0  0  0  0  0  0  0  0
   -1.8965   -1.8511    1.3161 C   0  0  0  0  0  0  0  0  0  0  0  0
   -2.4422   -2.8872    2.0394 C   0  0  0  0  0  0  0  0  0  0  0  0
   -1.4648   -3.6923    2.5542 O   0  0  0  0  0  0  0  0  0  0  0  0
   -0.2688   -3.1708    2.1694 C   0  0  0  0  0  0  0  0  0  0  0  0
   -0.4866   -2.0393    1.4307 C   0  0  0  0  0  0  0  0  0  0  0  0
    0.4598   -1.2330    0.8439 C   0  0  0  0  0  0  0  0  0  0  0  0
    1.9001   -1.4543    0.8045 C   0  0  0  0  0  0  0  0  0  0  0  0
    2.5419   -0.5618    0.0307 C   0  0  0  0  0  0  0  0  0  0  0  0
    1.3793    0.6849   -0.7588 Si  0  0  0  0  0  4  0  0  0  0  0  0
   -0.1438   -0.1197    0.1606 C   0  0  0  0  0  0  0  0  0  0  0  0
   -1.5930    0.1991    0.0744 C   0  0  0  0  0  0  0  0  0  0  0  0
   -2.1731    1.4136   -0.5092 C   0  0  0  0  0  0  0  0  0  0  0  0
   -1.4265    2.5921   -0.7715 C   0  0  0  0  0  0  0  0  0  0  0  0
   -1.9415    3.7300   -1.4003 C   0  0  0  0  0  0  0  0  0  0  0  0
   -3.2654    3.7563   -1.7732 C   0  0  0  0  0  0  0  0  0  0  0  0
   -4.0695    2.6678   -1.4586 C   0  0  0  0  0  0  0  0  0  0  0  0
   -3.5680    1.5137   -0.8003 C   0  0  0  0  0  0  0  0  0  0  0  0
    3.9614   -0.5659   -0.2434 C   0  0  0  0  0  0  0  0  0  0  0  0
    4.6294   -1.5260   -1.0443 C   0  0  0  0  0  0  0  0  0  0  0  0
    6.0475   -1.5168   -1.3041 C   0  0  0  0  0  0  0  0  0  0  0  0
    6.9481   -0.5564   -0.7859 C   0  0  0  0  0  0  0  0  0  0  0  0
    6.2706    0.3604    0.0063 C   0  0  0  0  0  0  0  0  0  0  0  0
    6.8105    1.4177    0.6872 C   0  0  0  0  0  0  0  0  0  0  0  0
    5.8207    2.0729    1.3685 O   0  0  0  0  0  0  0  0  0  0  0  0
    4.6429    1.4214    1.1158 C   0  0  0  0  0  0  0  0  0  0  0  0
    4.8678    0.3655    0.2695 C   0  0  0  0  0  0  0  0  0  0  0  0
   -5.6464   -1.8713    2.1850 H   0  0  0  0  0  0  0  0  0  0  0  0
   -5.2628   -3.1018    0.0494 H   0  0  0  0  0  0  0  0  0  0  0  0
   -7.5857   -0.8396   -0.2172 H   0  0  0  0  0  0  0  0  0  0  0  0
   -6.4187    1.2069   -1.1824 H   0  0  0  0  0  0  0  0  0  0  0  0
   -3.4353   -3.2098    2.3064 H   0  0  0  0  0  0  0  0  0  0  0  0
    0.6051   -3.7120    2.5028 H   0  0  0  0  0  0  0  0  0  0  0  0
    2.3783   -2.2686    1.3317 H   0  0  0  0  0  0  0  0  0  0  0  0
    1.6764    2.0561   -0.2674 H   0  0  0  0  0  0  0  0  0  0  0  0
    1.2758    0.5240   -2.2314 H   0  0  0  0  0  0  0  0  0  0  0  0
   -0.4104    2.6934   -0.4168 H   0  0  0  0  0  0  0  0  0  0  0  0
   -1.3036    4.5925   -1.5746 H   0  0  0  0  0  0  0  0  0  0  0  0
   -3.6863    4.6284   -2.2648 H   0  0  0  0  0  0  0  0  0  0  0  0
   -5.1195    2.7519   -1.7232 H   0  0  0  0  0  0  0  0  0  0  0  0
    4.0409   -2.3234   -1.5012 H   0  0  0  0  0  0  0  0  0  0  0  0
    6.4490   -2.3062   -1.9415 H   0  0  0  0  0  0  0  0  0  0  0  0
    8.0101   -0.5628   -0.9850 H   0  0  0  0  0  0  0  0  0  0  0  0
    7.8044    1.8253    0.8040 H   0  0  0  0  0  0  0  0  0  0  0  0
    3.7743    1.8331    1.6098 H   0  0  0  0  0  0  0  0  0  0  0  0
  1  2  1  0
  2  3  2  0
  3  4  1  0
  4  5  2  0
  5  6  1  0
  6  7  1  0
  7  8  2  0
  8  9  1  0
  9 10  1  0
 10 11  2  0
 11 12  1  0
 12 13  1  0
 13 14  2  0
 14 15  1  0
 15 16  1  0
 16 17  1  0
 17 18  1  0
 18 19  2  0
 19 20  1  0
 20 21  2  0
 21 22  1  0
 22 23  2  0
 14 24  1  0
 24 25  2  0
 25 26  1  0
 26 27  2  0
 27 28  1  0
 28 29  2  0
 29 30  1  0
 30 31  1  0
 31 32  2  0
  5  1  1  0
 17  6  2  0
 23 18  1  0
 32 24  1  0
 23  4  1  0
 32 28  1  0
 11  7  1  0
 16 12  2  0
  1 33  1  0
  1 34  1  0
  2 35  1  0
  3 36  1  0
  8 37  1  0
 10 38  1  0
 13 39  1  0
 15 40  1  0
 15 41  1  0
 19 42  1  0
 20 43  1  0
 21 44  1  0
 22 45  1  0
 25 46  1  0
 26 47  1  0
 27 48  1  0
 29 49  1  0
 31 50  1  0
M  END
