
     RDKit          3D

 44 48  0  0  0  0  0  0  0  0999 V2000
    3.1300    1.7860    2.3486 C   0  0  0  0  0  0  0  0  0  0  0  0
    2.8354    1.0489    1.1200 N   0  0  0  0  0  0  0  0  0  0  0  0
    3.8869    0.3262    0.4959 C   0  0  0  0  0  0  0  0  0  0  0  0
    5.2444    0.5397    0.8082 C   0  0  0  0  0  0  0  0  0  0  0  0
    6.2575   -0.2249    0.2283 C   0  0  0  0  0  0  0  0  0  0  0  0
    5.9340   -1.2212   -0.6792 C   0  0  0  0  0  0  0  0  0  0  0  0
    4.6010   -1.4262   -1.0374 C   0  0  0  0  0  0  0  0  0  0  0  0
    3.5620   -0.6409   -0.4991 C   0  0  0  0  0  0  0  0  0  0  0  0
    2.2062   -0.7896   -0.8952 N   0  0  0  0  0  0  0  0  0  0  0  0
    1.9150   -1.5252   -2.1255 C   0  0  0  0  0  0  0  0  0  0  0  0
    1.1554   -0.0668   -0.2693 C   0  0  0  0  0  0  0  0  0  0  0  0
   -0.2043   -0.2828   -0.5814 C   0  0  0  0  0  0  0  0  0  0  0  0
   -1.2412    0.4738   -0.0098 C   0  0  0  0  0  0  0  0  0  0  0  0
   -2.6473    0.2321   -0.3701 C   0  0  0  0  0  0  0  0  0  0  0  0
   -3.0635    0.2349   -1.7059 C   0  0  0  0  0  0  0  0  0  0  0  0
   -4.4025    0.0056   -2.0346 C   0  0  0  0  0  0  0  0  0  0  0  0
   -5.3552   -0.2303   -1.0548 C   0  0  0  0  0  0  0  0  0  0  0  0
   -6.6370   -0.4476   -1.4113 N   0  0  0  0  0  0  0  0  0  0  0  0
   -7.5091   -0.6701   -0.4049 C   0  0  0  0  0  0  0  0  0  0  0  0
   -7.1199   -0.6762    0.9183 C   0  0  0  0  0  0  0  0  0  0  0  0
   -5.8411   -0.4600    1.2942 N   0  0  0  0  0  0  0  0  0  0  0  0
   -4.9539   -0.2363    0.3035 C   0  0  0  0  0  0  0  0  0  0  0  0
   -3.6183   -0.0069    0.6162 C   0  0  0  0  0  0  0  0  0  0  0  0
   -0.8928    1.4698    0.9037 C   0  0  0  0  0  0  0  0  0  0  0  0
    0.4421    1.6778    1.2628 C   0  0  0  0  0  0  0  0  0  0  0  0
    1.4810    0.8977    0.7248 C   0  0  0  0  0  0  0  0  0  0  0  0
    3.9621    1.3519    2.9140 H   0  0  0  0  0  0  0  0  0  0  0  0
    3.3685    2.8292    2.1160 H   0  0  0  0  0  0  0  0  0  0  0  0
    2.3020    1.7666    3.0657 H   0  0  0  0  0  0  0  0  0  0  0  0
    5.5460    1.3162    1.5034 H   0  0  0  0  0  0  0  0  0  0  0  0
    7.2952   -0.0446    0.4953 H   0  0  0  0  0  0  0  0  0  0  0  0
    6.7154   -1.8360   -1.1175 H   0  0  0  0  0  0  0  0  0  0  0  0
    4.3946   -2.2265   -1.7403 H   0  0  0  0  0  0  0  0  0  0  0  0
    1.0811   -1.0930   -2.6898 H   0  0  0  0  0  0  0  0  0  0  0  0
    2.7429   -1.5000   -2.8425 H   0  0  0  0  0  0  0  0  0  0  0  0
    1.6806   -2.5698   -1.8954 H   0  0  0  0  0  0  0  0  0  0  0  0
   -0.4828   -1.0772   -1.2678 H   0  0  0  0  0  0  0  0  0  0  0  0
   -2.3506    0.4291   -2.5053 H   0  0  0  0  0  0  0  0  0  0  0  0
   -4.7096    0.0148   -3.0775 H   0  0  0  0  0  0  0  0  0  0  0  0
   -8.5383   -0.8447   -0.6960 H   0  0  0  0  0  0  0  0  0  0  0  0
   -7.8279   -0.8561    1.7189 H   0  0  0  0  0  0  0  0  0  0  0  0
   -3.3303   -0.0279    1.6659 H   0  0  0  0  0  0  0  0  0  0  0  0
   -1.6592    2.1016    1.3485 H   0  0  0  0  0  0  0  0  0  0  0  0
    0.6457    2.4791    1.9656 H   0  0  0  0  0  0  0  0  0  0  0  0
  1  2  1  0
  2  3  1  0
  3  4  2  0
  4  5  1  0
  5  6  2  0
  6  7  1  0
  7  8  2  0
  8  9  1  0
  9 10  1  0
  9 11  1  0
 11 12  2  0
 12 13  1  0
 13 14  1  0
 14 15  2  0
 15 16  1  0
 16 17  2  0
 17 18  1  0
 18 19  2  0
 19 20  1  0
 20 21  2  0
 21 22  1  0
 22 23  2  0
 13 24  2  0
 24 25  1  0
 25 26  2  0
 26  2  1  0
  8  3  1  0
 26 11  1  0
 23 14  1  0
 22 17  1  0
  1 27  1  0
  1 28  1  0
  1 29  1  0
  4 30  1  0
  5 31  1  0
  6 32  1  0
  7 33  1  0
 10 34  1  0
 10 35  1  0
 10 36  1  0
 12 37  1  0
 15 38  1  0
 16 39  1  0
 19 40  1  0
 20 41  1  0
 23 42  1  0
 24 43  1  0
 25 44  1  0
M  END
