
     RDKit          3D

 41 44  0  0  0  0  0  0  0  0999 V2000
    1.8942   -2.9927    1.5370 C   0  0  0  0  0  0  0  0  0  0  0  0
    1.7474   -1.5898    1.1634 N   0  0  0  0  0  0  0  0  0  0  0  0
    2.7589   -0.6661    1.5345 C   0  0  0  0  0  0  0  0  0  0  0  0
    4.0285   -1.0677    1.9907 C   0  0  0  0  0  0  0  0  0  0  0  0
    5.0053   -0.1334    2.3395 C   0  0  0  0  0  0  0  0  0  0  0  0
    4.7378    1.2231    2.2243 C   0  0  0  0  0  0  0  0  0  0  0  0
    3.4928    1.6490    1.7596 C   0  0  0  0  0  0  0  0  0  0  0  0
    2.4850    0.7285    1.4159 C   0  0  0  0  0  0  0  0  0  0  0  0
    1.2175    1.1313    0.9246 N   0  0  0  0  0  0  0  0  0  0  0  0
    0.7845    2.5117    1.1208 C   0  0  0  0  0  0  0  0  0  0  0  0
    0.3330    0.2107    0.3070 C   0  0  0  0  0  0  0  0  0  0  0  0
   -0.7803    0.6239   -0.4524 C   0  0  0  0  0  0  0  0  0  0  0  0
   -1.6474   -0.2941   -1.0658 C   0  0  0  0  0  0  0  0  0  0  0  0
   -2.7980    0.1628   -1.8634 C   0  0  0  0  0  0  0  0  0  0  0  0
   -2.7837   -0.0353   -3.2579 C   0  0  0  0  0  0  0  0  0  0  0  0
   -3.8489    0.3790   -4.0606 C   0  0  0  0  0  0  0  0  0  0  0  0
   -4.9527    0.9999   -3.4857 C   0  0  0  0  0  0  0  0  0  0  0  0
   -4.9909    1.2068   -2.1074 C   0  0  0  0  0  0  0  0  0  0  0  0
   -3.9233    0.7934   -1.2931 C   0  0  0  0  0  0  0  0  0  0  0  0
   -4.0239    1.0267    0.1212 C   0  0  0  0  0  0  0  0  0  0  0  0
   -4.1337    1.2440    1.2564 N   0  0  0  0  0  0  0  0  0  0  0  0
   -1.3718   -1.6566   -0.9284 C   0  0  0  0  0  0  0  0  0  0  0  0
   -0.2614   -2.0921   -0.1997 C   0  0  0  0  0  0  0  0  0  0  0  0
    0.6032   -1.1822    0.4317 C   0  0  0  0  0  0  0  0  0  0  0  0
    0.9284   -3.4782    1.7169 H   0  0  0  0  0  0  0  0  0  0  0  0
    2.4301   -3.1169    2.4848 H   0  0  0  0  0  0  0  0  0  0  0  0
    2.4266   -3.5451    0.7553 H   0  0  0  0  0  0  0  0  0  0  0  0
    4.2944   -2.1170    2.0616 H   0  0  0  0  0  0  0  0  0  0  0  0
    5.9784   -0.4697    2.6871 H   0  0  0  0  0  0  0  0  0  0  0  0
    5.5003    1.9535    2.4810 H   0  0  0  0  0  0  0  0  0  0  0  0
    3.3380    2.7170    1.6474 H   0  0  0  0  0  0  0  0  0  0  0  0
    1.0758    3.1297    0.2647 H   0  0  0  0  0  0  0  0  0  0  0  0
   -0.2998    2.5911    1.2604 H   0  0  0  0  0  0  0  0  0  0  0  0
    1.2028    2.9532    2.0325 H   0  0  0  0  0  0  0  0  0  0  0  0
   -0.9701    1.6828   -0.6029 H   0  0  0  0  0  0  0  0  0  0  0  0
   -1.9254   -0.5129   -3.7297 H   0  0  0  0  0  0  0  0  0  0  0  0
   -3.8127    0.2170   -5.1355 H   0  0  0  0  0  0  0  0  0  0  0  0
   -5.7829    1.3229   -4.1093 H   0  0  0  0  0  0  0  0  0  0  0  0
   -5.8610    1.6924   -1.6678 H   0  0  0  0  0  0  0  0  0  0  0  0
   -2.0155   -2.3975   -1.3984 H   0  0  0  0  0  0  0  0  0  0  0  0
   -0.0794   -3.1609   -0.1604 H   0  0  0  0  0  0  0  0  0  0  0  0
  1  2  1  0
  2  3  1  0
  3  4  2  0
  4  5  1  0
  5  6  2  0
  6  7  1  0
  7  8  2  0
  8  9  1  0
  9 10  1  0
  9 11  1  0
 11 12  2  0
 12 13  1  0
 13 14  1  0
 14 15  2  0
 15 16  1  0
 16 17  2  0
 17 18  1  0
 18 19  2  0
 19 20  1  0
 20 21  3  0
 13 22  2  0
 22 23  1  0
 23 24  2  0
 24  2  1  0
  8  3  1  0
 24 11  1  0
 19 14  1  0
  1 25  1  0
  1 26  1  0
  1 27  1  0
  4 28  1  0
  5 29  1  0
  6 30  1  0
  7 31  1  0
 10 32  1  0
 10 33  1  0
 10 34  1  0
 12 35  1  0
 15 36  1  0
 16 37  1  0
 17 38  1  0
 18 39  1  0
 22 40  1  0
 23 41  1  0
M  END
