
     RDKit          3D

 42 46  0  0  0  0  0  0  0  0999 V2000
   -3.1343   -2.5600   -0.9655 C   0  0  0  0  0  0  0  0  0  0  0  0
   -2.7169   -1.2292   -0.5352 N   0  0  0  0  0  0  0  0  0  0  0  0
   -3.7042   -0.2417   -0.2834 C   0  0  0  0  0  0  0  0  0  0  0  0
   -5.0478   -0.3879   -0.6765 C   0  0  0  0  0  0  0  0  0  0  0  0
   -5.9929    0.6075   -0.4226 C   0  0  0  0  0  0  0  0  0  0  0  0
   -5.6102    1.7776    0.2166 C   0  0  0  0  0  0  0  0  0  0  0  0
   -4.2814    1.9555    0.6039 C   0  0  0  0  0  0  0  0  0  0  0  0
   -3.3114    0.9613    0.3745 C   0  0  0  0  0  0  0  0  0  0  0  0
   -1.9500    1.1198    0.7426 N   0  0  0  0  0  0  0  0  0  0  0  0
   -1.5920    2.1712    1.6896 C   0  0  0  0  0  0  0  0  0  0  0  0
   -0.9401    0.2626    0.2336 C   0  0  0  0  0  0  0  0  0  0  0  0
    0.4345    0.5740    0.3215 C   0  0  0  0  0  0  0  0  0  0  0  0
    1.4382   -0.2660   -0.1975 C   0  0  0  0  0  0  0  0  0  0  0  0
    2.8726    0.0696   -0.1107 C   0  0  0  0  0  0  0  0  0  0  0  0
    3.3650    1.3673   -0.1059 C   0  0  0  0  0  0  0  0  0  0  0  0
    4.6827    1.6640   -0.0200 N   0  0  0  0  0  0  0  0  0  0  0  0
    5.5277    0.6305    0.0526 C   0  0  0  0  0  0  0  0  0  0  0  0
    6.8394    0.8919    0.1384 N   0  0  0  0  0  0  0  0  0  0  0  0
    7.6697   -0.1681    0.2056 C   0  0  0  0  0  0  0  0  0  0  0  0
    7.2037   -1.4637    0.1873 C   0  0  0  0  0  0  0  0  0  0  0  0
    5.8890   -1.7505    0.1018 N   0  0  0  0  0  0  0  0  0  0  0  0
    5.0430   -0.7128    0.0356 C   0  0  0  0  0  0  0  0  0  0  0  0
    3.7325   -0.9761   -0.0473 N   0  0  0  0  0  0  0  0  0  0  0  0
    1.0214   -1.4518   -0.8146 C   0  0  0  0  0  0  0  0  0  0  0  0
   -0.3337   -1.7773   -0.9330 C   0  0  0  0  0  0  0  0  0  0  0  0
   -1.3343   -0.9402   -0.4172 C   0  0  0  0  0  0  0  0  0  0  0  0
   -3.2070   -2.6065   -2.0573 H   0  0  0  0  0  0  0  0  0  0  0  0
   -2.4468   -3.3417   -0.6231 H   0  0  0  0  0  0  0  0  0  0  0  0
   -4.0981   -2.8529   -0.5340 H   0  0  0  0  0  0  0  0  0  0  0  0
   -5.3848   -1.2691   -1.2120 H   0  0  0  0  0  0  0  0  0  0  0  0
   -7.0234    0.4707   -0.7392 H   0  0  0  0  0  0  0  0  0  0  0  0
   -6.3397    2.5614    0.4024 H   0  0  0  0  0  0  0  0  0  0  0  0
   -4.0182    2.9016    1.0651 H   0  0  0  0  0  0  0  0  0  0  0  0
   -0.7415    1.8882    2.3202 H   0  0  0  0  0  0  0  0  0  0  0  0
   -1.3459    3.0977    1.1599 H   0  0  0  0  0  0  0  0  0  0  0  0
   -2.3947    2.3771    2.4068 H   0  0  0  0  0  0  0  0  0  0  0  0
    0.7321    1.5009    0.8004 H   0  0  0  0  0  0  0  0  0  0  0  0
    2.7141    2.2315   -0.1874 H   0  0  0  0  0  0  0  0  0  0  0  0
    8.7279    0.0580    0.2747 H   0  0  0  0  0  0  0  0  0  0  0  0
    7.8751   -2.3135    0.2411 H   0  0  0  0  0  0  0  0  0  0  0  0
    1.7589   -2.1378   -1.2311 H   0  0  0  0  0  0  0  0  0  0  0  0
   -0.5785   -2.6930   -1.4610 H   0  0  0  0  0  0  0  0  0  0  0  0
  1  2  1  0
  2  3  1  0
  3  4  2  0
  4  5  1  0
  5  6  2  0
  6  7  1  0
  7  8  2  0
  8  9  1  0
  9 10  1  0
  9 11  1  0
 11 12  2  0
 12 13  1  0
 13 14  1  0
 14 15  2  0
 15 16  1  0
 16 17  2  0
 17 18  1  0
 18 19  2  0
 19 20  1  0
 20 21  2  0
 21 22  1  0
 22 23  2  0
 13 24  2  0
 24 25  1  0
 25 26  2  0
 26  2  1  0
  8  3  1  0
 26 11  1  0
 23 14  1  0
 22 17  1  0
  1 27  1  0
  1 28  1  0
  1 29  1  0
  4 30  1  0
  5 31  1  0
  6 32  1  0
  7 33  1  0
 10 34  1  0
 10 35  1  0
 10 36  1  0
 12 37  1  0
 15 38  1  0
 19 39  1  0
 20 40  1  0
 24 41  1  0
 25 42  1  0
M  END
