
     RDKit          3D

 39 42  0  0  0  0  0  0  0  0999 V2000
   -3.0357   -2.0197    0.7335 C   0  0  0  0  0  0  0  0  0  0  0  0
   -2.2609   -0.8537    0.3213 N   0  0  0  0  0  0  0  0  0  0  0  0
   -2.9420    0.2893   -0.1734 C   0  0  0  0  0  0  0  0  0  0  0  0
   -4.3338    0.4612   -0.0524 C   0  0  0  0  0  0  0  0  0  0  0  0
   -4.9718    1.6017   -0.5439 C   0  0  0  0  0  0  0  0  0  0  0  0
   -4.2286    2.6020   -1.1537 C   0  0  0  0  0  0  0  0  0  0  0  0
   -2.8452    2.4648   -1.2732 C   0  0  0  0  0  0  0  0  0  0  0  0
   -2.1791    1.3185   -0.8002 C   0  0  0  0  0  0  0  0  0  0  0  0
   -0.7728    1.1608   -0.8913 N   0  0  0  0  0  0  0  0  0  0  0  0
   -0.0252    1.9973   -1.8263 C   0  0  0  0  0  0  0  0  0  0  0  0
   -0.0887    0.1599   -0.1556 C   0  0  0  0  0  0  0  0  0  0  0  0
    1.3120    0.1720    0.0136 C   0  0  0  0  0  0  0  0  0  0  0  0
    1.9936   -0.8256    0.7323 C   0  0  0  0  0  0  0  0  0  0  0  0
    3.4620   -0.8165    0.8960 C   0  0  0  0  0  0  0  0  0  0  0  0
    3.8736   -0.9897    2.1802 N   0  0  0  0  0  0  0  0  0  0  0  0
    5.1945   -0.9879    2.4087 C   0  0  0  0  0  0  0  0  0  0  0  0
    6.1458   -0.8421    1.4786 N   0  0  0  0  0  0  0  0  0  0  0  0
    5.7045   -0.6880    0.2140 C   0  0  0  0  0  0  0  0  0  0  0  0
    4.3704   -0.6676   -0.1419 C   0  0  0  0  0  0  0  0  0  0  0  0
    4.0088   -0.5222   -1.5118 C   0  0  0  0  0  0  0  0  0  0  0  0
    3.7432   -0.3783   -2.6323 N   0  0  0  0  0  0  0  0  0  0  0  0
    1.2228   -1.8268    1.3341 C   0  0  0  0  0  0  0  0  0  0  0  0
   -0.1700   -1.8460    1.2089 C   0  0  0  0  0  0  0  0  0  0  0  0
   -0.8503   -0.8716    0.4623 C   0  0  0  0  0  0  0  0  0  0  0  0
   -3.9429   -2.1490    0.1326 H   0  0  0  0  0  0  0  0  0  0  0  0
   -3.3183   -1.9409    1.7886 H   0  0  0  0  0  0  0  0  0  0  0  0
   -2.4880   -2.9569    0.5835 H   0  0  0  0  0  0  0  0  0  0  0  0
   -4.9508   -0.2768    0.4489 H   0  0  0  0  0  0  0  0  0  0  0  0
   -6.0475    1.7109   -0.4353 H   0  0  0  0  0  0  0  0  0  0  0  0
   -4.7195    3.4978   -1.5242 H   0  0  0  0  0  0  0  0  0  0  0  0
   -2.2965    3.2870   -1.7206 H   0  0  0  0  0  0  0  0  0  0  0  0
   -0.6213    2.2756   -2.7029 H   0  0  0  0  0  0  0  0  0  0  0  0
    0.3202    2.9107   -1.3306 H   0  0  0  0  0  0  0  0  0  0  0  0
    0.8419    1.4761   -2.2482 H   0  0  0  0  0  0  0  0  0  0  0  0
    1.8843    1.0020   -0.3904 H   0  0  0  0  0  0  0  0  0  0  0  0
    5.5191   -1.1166    3.4357 H   0  0  0  0  0  0  0  0  0  0  0  0
    6.4924   -0.5811   -0.5291 H   0  0  0  0  0  0  0  0  0  0  0  0
    1.7052   -2.6008    1.9296 H   0  0  0  0  0  0  0  0  0  0  0  0
   -0.7052   -2.6297    1.7348 H   0  0  0  0  0  0  0  0  0  0  0  0
  1  2  1  0
  2  3  1  0
  3  4  2  0
  4  5  1  0
  5  6  2  0
  6  7  1  0
  7  8  2  0
  8  9  1  0
  9 10  1  0
  9 11  1  0
 11 12  2  0
 12 13  1  0
 13 14  1  0
 14 15  2  0
 15 16  1  0
 16 17  2  0
 17 18  1  0
 18 19  2  0
 19 20  1  0
 20 21  3  0
 13 22  2  0
 22 23  1  0
 23 24  2  0
 24  2  1  0
  8  3  1  0
 24 11  1  0
 19 14  1  0
  1 25  1  0
  1 26  1  0
  1 27  1  0
  4 28  1  0
  5 29  1  0
  6 30  1  0
  7 31  1  0
 10 32  1  0
 10 33  1  0
 10 34  1  0
 12 35  1  0
 16 36  1  0
 18 37  1  0
 22 38  1  0
 23 39  1  0
M  END
