
     RDKit          3D

 44 48  0  0  0  0  0  0  0  0999 V2000
   -5.4149   -1.1825    0.2853 C   0  0  0  0  0  0  0  0  0  0  0  0
   -4.0372   -0.7110    0.3918 N   0  0  0  0  0  0  0  0  0  0  0  0
   -3.7475    0.3851    1.2283 C   0  0  0  0  0  0  0  0  0  0  0  0
   -4.6898    1.0496    2.0346 C   0  0  0  0  0  0  0  0  0  0  0  0
   -4.3342    2.1639    2.8121 C   0  0  0  0  0  0  0  0  0  0  0  0
   -3.0239    2.6310    2.8060 C   0  0  0  0  0  0  0  0  0  0  0  0
   -2.0641    1.9729    2.0365 C   0  0  0  0  0  0  0  0  0  0  0  0
   -2.4253    0.8622    1.2667 C   0  0  0  0  0  0  0  0  0  0  0  0
   -1.4026    0.2810    0.5557 O   0  0  0  0  0  0  0  0  0  0  0  0
   -1.6902   -0.8372   -0.2060 C   0  0  0  0  0  0  0  0  0  0  0  0
   -0.6025   -1.4056   -0.9036 C   0  0  0  0  0  0  0  0  0  0  0  0
    0.7514   -0.8520   -0.8121 C   0  0  0  0  0  0  0  0  0  0  0  0
    1.2673   -0.0061   -1.7913 C   0  0  0  0  0  0  0  0  0  0  0  0
    2.5663    0.4931   -1.6689 C   0  0  0  0  0  0  0  0  0  0  0  0
    3.3411    0.1489   -0.5601 C   0  0  0  0  0  0  0  0  0  0  0  0
    4.7302    0.6393   -0.3826 C   0  0  0  0  0  0  0  0  0  0  0  0
    5.5250    0.2425    0.6965 C   0  0  0  0  0  0  0  0  0  0  0  0
    6.8233    0.7342    0.8159 C   0  0  0  0  0  0  0  0  0  0  0  0
    7.3065    1.6144   -0.1437 C   0  0  0  0  0  0  0  0  0  0  0  0
    6.4703    1.9593   -1.1915 C   0  0  0  0  0  0  0  0  0  0  0  0
    5.2064    1.5004   -1.3280 N   0  0  0  0  0  0  0  0  0  0  0  0
    2.8513   -0.6728    0.4136 N   0  0  0  0  0  0  0  0  0  0  0  0
    1.5857   -1.1385    0.2674 C   0  0  0  0  0  0  0  0  0  0  0  0
   -0.8381   -2.5307   -1.6999 C   0  0  0  0  0  0  0  0  0  0  0  0
   -2.1114   -3.0875   -1.7768 C   0  0  0  0  0  0  0  0  0  0  0  0
   -3.1744   -2.5164   -1.0742 C   0  0  0  0  0  0  0  0  0  0  0  0
   -2.9984   -1.3661   -0.2932 C   0  0  0  0  0  0  0  0  0  0  0  0
   -5.6396   -1.8847    1.0916 H   0  0  0  0  0  0  0  0  0  0  0  0
   -6.1393   -0.3636    0.3197 H   0  0  0  0  0  0  0  0  0  0  0  0
   -5.6275   -1.6707   -0.6680 H   0  0  0  0  0  0  0  0  0  0  0  0
   -5.7230    0.7235    2.0876 H   0  0  0  0  0  0  0  0  0  0  0  0
   -5.0890    2.6689    3.4205 H   0  0  0  0  0  0  0  0  0  0  0  0
   -2.7500    3.5028    3.3993 H   0  0  0  0  0  0  0  0  0  0  0  0
   -1.0349    2.3216    2.0316 H   0  0  0  0  0  0  0  0  0  0  0  0
    0.6657    0.2751   -2.6486 H   0  0  0  0  0  0  0  0  0  0  0  0
    2.9659    1.1491   -2.4369 H   0  0  0  0  0  0  0  0  0  0  0  0
    5.1363   -0.4385    1.4461 H   0  0  0  0  0  0  0  0  0  0  0  0
    7.4446    0.4329    1.6566 H   0  0  0  0  0  0  0  0  0  0  0  0
    8.3110    2.0158   -0.0818 H   0  0  0  0  0  0  0  0  0  0  0  0
    6.8051    2.6374   -1.9767 H   0  0  0  0  0  0  0  0  0  0  0  0
    1.2496   -1.7817    1.0763 H   0  0  0  0  0  0  0  0  0  0  0  0
   -0.0241   -2.9847   -2.2595 H   0  0  0  0  0  0  0  0  0  0  0  0
   -2.2811   -3.9706   -2.3890 H   0  0  0  0  0  0  0  0  0  0  0  0
   -4.1398   -3.0040   -1.1633 H   0  0  0  0  0  0  0  0  0  0  0  0
  1  2  1  0
  2  3  1  0
  3  4  2  0
  4  5  1  0
  5  6  2  0
  6  7  1  0
  7  8  2  0
  8  9  1  0
  9 10  1  0
 10 11  2  0
 11 12  1  0
 12 13  2  0
 13 14  1  0
 14 15  2  0
 15 16  1  0
 16 17  2  0
 17 18  1  0
 18 19  2  0
 19 20  1  0
 20 21  2  0
 15 22  1  0
 22 23  2  0
 11 24  1  0
 24 25  2  0
 25 26  1  0
 26 27  2  0
 27  2  1  0
  8  3  1  0
 27 10  1  0
 23 12  1  0
 21 16  1  0
  1 28  1  0
  1 29  1  0
  1 30  1  0
  4 31  1  0
  5 32  1  0
  6 33  1  0
  7 34  1  0
 13 35  1  0
 14 36  1  0
 17 37  1  0
 18 38  1  0
 19 39  1  0
 20 40  1  0
 23 41  1  0
 24 42  1  0
 25 43  1  0
 26 44  1  0
M  END
