
     RDKit          3D

 45 50  0  0  0  0  0  0  0  0999 V2000
   -5.4362   -1.3551    0.5131 C   0  0  0  0  0  0  0  0  0  0  0  0
   -4.1085   -0.8144    0.2414 N   0  0  0  0  0  0  0  0  0  0  0  0
   -3.9722    0.4938   -0.2558 C   0  0  0  0  0  0  0  0  0  0  0  0
   -5.0416    1.3215   -0.6287 C   0  0  0  0  0  0  0  0  0  0  0  0
   -4.8239    2.6204   -1.1077 C   0  0  0  0  0  0  0  0  0  0  0  0
   -3.5299    3.1175   -1.2290 C   0  0  0  0  0  0  0  0  0  0  0  0
   -2.4516    2.3119   -0.8800 C   0  0  0  0  0  0  0  0  0  0  0  0
   -2.6749    1.0146   -0.4076 C   0  0  0  0  0  0  0  0  0  0  0  0
   -1.5443    0.2908   -0.1007 O   0  0  0  0  0  0  0  0  0  0  0  0
   -1.6919   -1.0474    0.2241 C   0  0  0  0  0  0  0  0  0  0  0  0
   -0.4996   -1.7924    0.3717 C   0  0  0  0  0  0  0  0  0  0  0  0
    0.8345   -1.1840    0.2204 C   0  0  0  0  0  0  0  0  0  0  0  0
    1.6946   -1.5942   -0.8002 C   0  0  0  0  0  0  0  0  0  0  0  0
    2.9659   -1.0261   -0.9493 C   0  0  0  0  0  0  0  0  0  0  0  0
    3.4169   -0.0155   -0.0633 C   0  0  0  0  0  0  0  0  0  0  0  0
    2.5512    0.3859    0.9528 C   0  0  0  0  0  0  0  0  0  0  0  0
    1.2702   -0.1848    1.1062 C   0  0  0  0  0  0  0  0  0  0  0  0
    3.2507    1.6111    1.9281 S   0  0  0  0  0  0  0  0  0  0  0  0
    4.7080    1.6321    1.0242 C   0  0  0  0  0  0  0  0  0  0  0  0
    5.8327    2.4498    1.2558 C   0  0  0  0  0  0  0  0  0  0  0  0
    6.9412    2.3344    0.4152 C   0  0  0  0  0  0  0  0  0  0  0  0
    6.9360    1.4276   -0.6336 C   0  0  0  0  0  0  0  0  0  0  0  0
    5.8178    0.6189   -0.8587 C   0  0  0  0  0  0  0  0  0  0  0  0
    4.6735    0.7104   -0.0228 C   0  0  0  0  0  0  0  0  0  0  0  0
   -0.6078   -3.1583    0.6711 C   0  0  0  0  0  0  0  0  0  0  0  0
   -1.8556   -3.7591    0.8159 C   0  0  0  0  0  0  0  0  0  0  0  0
   -3.0217   -3.0028    0.6737 C   0  0  0  0  0  0  0  0  0  0  0  0
   -2.9697   -1.6310    0.3883 C   0  0  0  0  0  0  0  0  0  0  0  0
   -6.1379   -0.5872    0.8559 H   0  0  0  0  0  0  0  0  0  0  0  0
   -5.4284   -2.0849    1.3299 H   0  0  0  0  0  0  0  0  0  0  0  0
   -5.8469   -1.8323   -0.3830 H   0  0  0  0  0  0  0  0  0  0  0  0
   -6.0692    0.9788   -0.5720 H   0  0  0  0  0  0  0  0  0  0  0  0
   -5.6711    3.2412   -1.3888 H   0  0  0  0  0  0  0  0  0  0  0  0
   -3.3613    4.1247   -1.5997 H   0  0  0  0  0  0  0  0  0  0  0  0
   -1.4355    2.6839   -0.9777 H   0  0  0  0  0  0  0  0  0  0  0  0
    1.3769   -2.3599   -1.5058 H   0  0  0  0  0  0  0  0  0  0  0  0
    3.6074   -1.3656   -1.7585 H   0  0  0  0  0  0  0  0  0  0  0  0
    0.6202    0.1539    1.9103 H   0  0  0  0  0  0  0  0  0  0  0  0
    5.8382    3.1611    2.0771 H   0  0  0  0  0  0  0  0  0  0  0  0
    7.8130    2.9614    0.5865 H   0  0  0  0  0  0  0  0  0  0  0  0
    7.8027    1.3433   -1.2846 H   0  0  0  0  0  0  0  0  0  0  0  0
    5.8295   -0.0866   -1.6856 H   0  0  0  0  0  0  0  0  0  0  0  0
    0.2886   -3.7625    0.7975 H   0  0  0  0  0  0  0  0  0  0  0  0
   -1.9226   -4.8207    1.0409 H   0  0  0  0  0  0  0  0  0  0  0  0
   -3.9674   -3.5240    0.7788 H   0  0  0  0  0  0  0  0  0  0  0  0
  1  2  1  0
  2  3  1  0
  3  4  2  0
  4  5  1  0
  5  6  2  0
  6  7  1  0
  7  8  2  0
  8  9  1  0
  9 10  1  0
 10 11  2  0
 11 12  1  0
 12 13  2  0
 13 14  1  0
 14 15  2  0
 15 16  1  0
 16 17  2  0
 16 18  1  0
 18 19  1  0
 19 20  2  0
 20 21  1  0
 21 22  2  0
 22 23  1  0
 23 24  2  0
 11 25  1  0
 25 26  2  0
 26 27  1  0
 27 28  2  0
 28  2  1  0
  8  3  1  0
 28 10  1  0
 17 12  1  0
 24 19  1  0
 24 15  1  0
  1 29  1  0
  1 30  1  0
  1 31  1  0
  4 32  1  0
  5 33  1  0
  6 34  1  0
  7 35  1  0
 13 36  1  0
 14 37  1  0
 17 38  1  0
 20 39  1  0
 21 40  1  0
 22 41  1  0
 23 42  1  0
 25 43  1  0
 26 44  1  0
 27 45  1  0
M  END
