
     RDKit          3D

 40 44  0  0  0  0  0  0  0  0999 V2000
   -4.3508    1.3622    1.4199 C   0  0  0  0  0  0  0  0  0  0  0  0
   -3.1533    0.8179    0.7878 N   0  0  0  0  0  0  0  0  0  0  0  0
   -3.2758   -0.0888   -0.2800 C   0  0  0  0  0  0  0  0  0  0  0  0
   -4.4900   -0.6137   -0.7467 C   0  0  0  0  0  0  0  0  0  0  0  0
   -4.5298   -1.5076   -1.8251 C   0  0  0  0  0  0  0  0  0  0  0  0
   -3.3538   -1.8999   -2.4570 C   0  0  0  0  0  0  0  0  0  0  0  0
   -2.1356   -1.4054   -2.0044 C   0  0  0  0  0  0  0  0  0  0  0  0
   -2.1020   -0.5176   -0.9243 C   0  0  0  0  0  0  0  0  0  0  0  0
   -0.8490   -0.0932   -0.5419 O   0  0  0  0  0  0  0  0  0  0  0  0
   -0.7365    0.6616    0.6140 C   0  0  0  0  0  0  0  0  0  0  0  0
    0.5781    0.9355    1.0586 C   0  0  0  0  0  0  0  0  0  0  0  0
    1.7716    0.4816    0.3248 C   0  0  0  0  0  0  0  0  0  0  0  0
    1.9942    0.8193   -1.0069 C   0  0  0  0  0  0  0  0  0  0  0  0
    3.0788    0.4424   -1.7249 N   0  0  0  0  0  0  0  0  0  0  0  0
    3.9981   -0.3157   -1.0972 C   0  0  0  0  0  0  0  0  0  0  0  0
    5.1282   -0.7344   -1.7815 C   0  0  0  0  0  0  0  0  0  0  0  0
    6.0951   -1.5181   -1.1564 C   0  0  0  0  0  0  0  0  0  0  0  0
    5.8928   -1.8633    0.1651 C   0  0  0  0  0  0  0  0  0  0  0  0
    4.8122   -1.4818    0.8772 N   0  0  0  0  0  0  0  0  0  0  0  0
    3.8877   -0.7243    0.2486 C   0  0  0  0  0  0  0  0  0  0  0  0
    2.7571   -0.3064    0.9351 C   0  0  0  0  0  0  0  0  0  0  0  0
    0.7297    1.6673    2.2463 C   0  0  0  0  0  0  0  0  0  0  0  0
   -0.3817    2.1081    2.9605 C   0  0  0  0  0  0  0  0  0  0  0  0
   -1.6705    1.8346    2.4969 C   0  0  0  0  0  0  0  0  0  0  0  0
   -1.8800    1.1185    1.3104 C   0  0  0  0  0  0  0  0  0  0  0  0
   -4.6903    0.7058    2.2282 H   0  0  0  0  0  0  0  0  0  0  0  0
   -4.1864    2.3663    1.8257 H   0  0  0  0  0  0  0  0  0  0  0  0
   -5.1725    1.4996    0.7090 H   0  0  0  0  0  0  0  0  0  0  0  0
   -5.4349   -0.3567   -0.2800 H   0  0  0  0  0  0  0  0  0  0  0  0
   -5.4848   -1.8989   -2.1672 H   0  0  0  0  0  0  0  0  0  0  0  0
   -3.3850   -2.5928   -3.2933 H   0  0  0  0  0  0  0  0  0  0  0  0
   -1.2093   -1.7108   -2.4833 H   0  0  0  0  0  0  0  0  0  0  0  0
    1.2821    1.4316   -1.5564 H   0  0  0  0  0  0  0  0  0  0  0  0
    5.2543   -0.4434   -2.8208 H   0  0  0  0  0  0  0  0  0  0  0  0
    6.9791   -1.8471   -1.6904 H   0  0  0  0  0  0  0  0  0  0  0  0
    6.6128   -2.4729    0.7038 H   0  0  0  0  0  0  0  0  0  0  0  0
    2.6423   -0.6164    1.9714 H   0  0  0  0  0  0  0  0  0  0  0  0
    1.7233    1.9040    2.6233 H   0  0  0  0  0  0  0  0  0  0  0  0
   -0.2454    2.6672    3.8832 H   0  0  0  0  0  0  0  0  0  0  0  0
   -2.5004    2.1855    3.1014 H   0  0  0  0  0  0  0  0  0  0  0  0
  1  2  1  0
  2  3  1  0
  3  4  2  0
  4  5  1  0
  5  6  2  0
  6  7  1  0
  7  8  2  0
  8  9  1  0
  9 10  1  0
 10 11  2  0
 11 12  1  0
 12 13  2  0
 13 14  1  0
 14 15  2  0
 15 16  1  0
 16 17  2  0
 17 18  1  0
 18 19  2  0
 19 20  1  0
 20 21  2  0
 11 22  1  0
 22 23  2  0
 23 24  1  0
 24 25  2  0
 25  2  1  0
  8  3  1  0
 25 10  1  0
 21 12  1  0
 20 15  1  0
  1 26  1  0
  1 27  1  0
  1 28  1  0
  4 29  1  0
  5 30  1  0
  6 31  1  0
  7 32  1  0
 13 33  1  0
 16 34  1  0
 17 35  1  0
 18 36  1  0
 21 37  1  0
 22 38  1  0
 23 39  1  0
 24 40  1  0
M  END
