
     RDKit          3D

 38 42  0  0  0  0  0  0  0  0999 V2000
   -3.9825    1.8998    0.9362 C   0  0  0  0  0  0  0  0  0  0  0  0
   -2.8701    1.0306    0.5647 N   0  0  0  0  0  0  0  0  0  0  0  0
   -3.0860   -0.3470    0.3901 C   0  0  0  0  0  0  0  0  0  0  0  0
   -4.3439   -0.9667    0.4046 C   0  0  0  0  0  0  0  0  0  0  0  0
   -4.4744   -2.3512    0.2334 C   0  0  0  0  0  0  0  0  0  0  0  0
   -3.3481   -3.1449    0.0395 C   0  0  0  0  0  0  0  0  0  0  0  0
   -2.0903   -2.5527    0.0056 C   0  0  0  0  0  0  0  0  0  0  0  0
   -1.9678   -1.1692    0.1696 C   0  0  0  0  0  0  0  0  0  0  0  0
   -0.6851   -0.6718    0.1061 O   0  0  0  0  0  0  0  0  0  0  0  0
   -0.5130    0.7027    0.0718 C   0  0  0  0  0  0  0  0  0  0  0  0
    0.7977    1.1707   -0.1831 C   0  0  0  0  0  0  0  0  0  0  0  0
    1.9392    0.2767   -0.4507 C   0  0  0  0  0  0  0  0  0  0  0  0
    1.8741   -0.8363   -1.2778 C   0  0  0  0  0  0  0  0  0  0  0  0
    2.9348   -1.6389   -1.5294 N   0  0  0  0  0  0  0  0  0  0  0  0
    4.0886   -1.3106   -0.9397 C   0  0  0  0  0  0  0  0  0  0  0  0
    5.1567   -2.0884   -1.1659 N   0  0  0  0  0  0  0  0  0  0  0  0
    6.3094   -1.7322   -0.5647 C   0  0  0  0  0  0  0  0  0  0  0  0
    6.3991   -0.6213    0.2439 C   0  0  0  0  0  0  0  0  0  0  0  0
    5.3395    0.1770    0.4842 N   0  0  0  0  0  0  0  0  0  0  0  0
    4.1800   -0.1591   -0.0987 C   0  0  0  0  0  0  0  0  0  0  0  0
    3.1157    0.6208    0.1292 N   0  0  0  0  0  0  0  0  0  0  0  0
    1.0016    2.5615   -0.1761 C   0  0  0  0  0  0  0  0  0  0  0  0
   -0.0524    3.4452    0.0417 C   0  0  0  0  0  0  0  0  0  0  0  0
   -1.3388    2.9581    0.2750 C   0  0  0  0  0  0  0  0  0  0  0  0
   -1.5975    1.5813    0.3137 C   0  0  0  0  0  0  0  0  0  0  0  0
   -4.7237    1.3883    1.5596 H   0  0  0  0  0  0  0  0  0  0  0  0
   -3.6598    2.7449    1.5540 H   0  0  0  0  0  0  0  0  0  0  0  0
   -4.4823    2.2860    0.0416 H   0  0  0  0  0  0  0  0  0  0  0  0
   -5.2559   -0.3935    0.5338 H   0  0  0  0  0  0  0  0  0  0  0  0
   -5.4617   -2.8067    0.2504 H   0  0  0  0  0  0  0  0  0  0  0  0
   -3.4499   -4.2189   -0.0904 H   0  0  0  0  0  0  0  0  0  0  0  0
   -1.2049   -3.1625   -0.1511 H   0  0  0  0  0  0  0  0  0  0  0  0
    0.9590   -1.1192   -1.7886 H   0  0  0  0  0  0  0  0  0  0  0  0
    7.1643   -2.3713   -0.7551 H   0  0  0  0  0  0  0  0  0  0  0  0
    7.3287   -0.3381    0.7249 H   0  0  0  0  0  0  0  0  0  0  0  0
    1.9986    2.9658   -0.3505 H   0  0  0  0  0  0  0  0  0  0  0  0
    0.1292    4.5172    0.0290 H   0  0  0  0  0  0  0  0  0  0  0  0
   -2.1280    3.6885    0.4192 H   0  0  0  0  0  0  0  0  0  0  0  0
  1  2  1  0
  2  3  1  0
  3  4  2  0
  4  5  1  0
  5  6  2  0
  6  7  1  0
  7  8  2  0
  8  9  1  0
  9 10  1  0
 10 11  2  0
 11 12  1  0
 12 13  2  0
 13 14  1  0
 14 15  2  0
 15 16  1  0
 16 17  2  0
 17 18  1  0
 18 19  2  0
 19 20  1  0
 20 21  2  0
 11 22  1  0
 22 23  2  0
 23 24  1  0
 24 25  2  0
 25  2  1  0
  8  3  1  0
 25 10  1  0
 21 12  1  0
 20 15  1  0
  1 26  1  0
  1 27  1  0
  1 28  1  0
  4 29  1  0
  5 30  1  0
  6 31  1  0
  7 32  1  0
 13 33  1  0
 17 34  1  0
 18 35  1  0
 22 36  1  0
 23 37  1  0
 24 38  1  0
M  END
