
     RDKit          3D

 32 35  0  0  0  0  0  0  0  0999 V2000
   -1.8859    2.7609   -0.2463 C   0  0  0  0  0  0  0  0  0  0  0  0
   -1.2302    1.4600   -0.1558 N   0  0  0  0  0  0  0  0  0  0  0  0
   -2.0053    0.2876   -0.1143 C   0  0  0  0  0  0  0  0  0  0  0  0
   -3.4058    0.2581   -0.0439 C   0  0  0  0  0  0  0  0  0  0  0  0
   -4.1072   -0.9546   -0.0135 C   0  0  0  0  0  0  0  0  0  0  0  0
   -3.4211   -2.1647   -0.0474 C   0  0  0  0  0  0  0  0  0  0  0  0
   -2.0317   -2.1629   -0.1031 C   0  0  0  0  0  0  0  0  0  0  0  0
   -1.3372   -0.9493   -0.1287 C   0  0  0  0  0  0  0  0  0  0  0  0
    0.0356   -1.0492   -0.1733 O   0  0  0  0  0  0  0  0  0  0  0  0
    0.7832    0.1076   -0.0367 C   0  0  0  0  0  0  0  0  0  0  0  0
    2.1808   -0.0448    0.0876 C   0  0  0  0  0  0  0  0  0  0  0  0
    2.8169   -1.3502    0.0287 C   0  0  0  0  0  0  0  0  0  0  0  0
    2.5689   -2.4778   -0.7854 C   0  0  0  0  0  0  0  0  0  0  0  0
    3.3948   -3.4926   -0.5152 N   0  0  0  0  0  0  0  0  0  0  0  0
    4.2067   -3.0355    0.5105 O   0  0  0  0  0  0  0  0  0  0  0  0
    3.8559   -1.7639    0.8286 C   0  0  0  0  0  0  0  0  0  0  0  0
    2.9702    1.0993    0.2608 C   0  0  0  0  0  0  0  0  0  0  0  0
    2.3815    2.3602    0.3133 C   0  0  0  0  0  0  0  0  0  0  0  0
    0.9974    2.4973    0.1818 C   0  0  0  0  0  0  0  0  0  0  0  0
    0.1689    1.3818   -0.0090 C   0  0  0  0  0  0  0  0  0  0  0  0
   -2.1187    3.1439    0.7530 H   0  0  0  0  0  0  0  0  0  0  0  0
   -1.2721    3.4993   -0.7736 H   0  0  0  0  0  0  0  0  0  0  0  0
   -2.8099    2.7226   -0.8331 H   0  0  0  0  0  0  0  0  0  0  0  0
   -3.9901    1.1708    0.0042 H   0  0  0  0  0  0  0  0  0  0  0  0
   -5.1932   -0.9491    0.0409 H   0  0  0  0  0  0  0  0  0  0  0  0
   -3.9656   -3.1047   -0.0232 H   0  0  0  0  0  0  0  0  0  0  0  0
   -1.4849   -3.1016   -0.1200 H   0  0  0  0  0  0  0  0  0  0  0  0
    1.8294   -2.6021   -1.5642 H   0  0  0  0  0  0  0  0  0  0  0  0
    4.4255   -1.3149    1.6285 H   0  0  0  0  0  0  0  0  0  0  0  0
    4.0521    1.0250    0.3463 H   0  0  0  0  0  0  0  0  0  0  0  0
    3.0013    3.2426    0.4548 H   0  0  0  0  0  0  0  0  0  0  0  0
    0.5896    3.5009    0.2479 H   0  0  0  0  0  0  0  0  0  0  0  0
  1  2  1  0
  2  3  1  0
  3  4  2  0
  4  5  1  0
  5  6  2  0
  6  7  1  0
  7  8  2  0
  8  9  1  0
  9 10  1  0
 10 11  2  0
 11 12  1  0
 12 13  1  0
 13 14  2  0
 14 15  1  0
 15 16  1  0
 11 17  1  0
 17 18  2  0
 18 19  1  0
 19 20  2  0
 20  2  1  0
  8  3  1  0
 20 10  1  0
 16 12  2  0
  1 21  1  0
  1 22  1  0
  1 23  1  0
  4 24  1  0
  5 25  1  0
  6 26  1  0
  7 27  1  0
 13 28  1  0
 16 29  1  0
 17 30  1  0
 18 31  1  0
 19 32  1  0
M  END
