
     RDKit          3D

 35 38  0  0  0  0  0  0  0  0999 V2000
   -3.0909   -0.9618   -1.8759 C   0  0  0  0  0  0  0  0  0  0  0  0
   -2.0047   -0.6368   -0.9570 N   0  0  0  0  0  0  0  0  0  0  0  0
   -2.2797   -0.4230    0.4051 C   0  0  0  0  0  0  0  0  0  0  0  0
   -3.5319   -0.6187    1.0059 C   0  0  0  0  0  0  0  0  0  0  0  0
   -3.7296   -0.3759    2.3715 C   0  0  0  0  0  0  0  0  0  0  0  0
   -2.6759    0.0631    3.1671 C   0  0  0  0  0  0  0  0  0  0  0  0
   -1.4204    0.2507    2.5991 C   0  0  0  0  0  0  0  0  0  0  0  0
   -1.2280    0.0019    1.2364 C   0  0  0  0  0  0  0  0  0  0  0  0
    0.0520    0.2039    0.7684 O   0  0  0  0  0  0  0  0  0  0  0  0
    0.3371   -0.1664   -0.5357 C   0  0  0  0  0  0  0  0  0  0  0  0
    1.6919   -0.0846   -0.9269 C   0  0  0  0  0  0  0  0  0  0  0  0
    2.7442    0.4002   -0.0185 C   0  0  0  0  0  0  0  0  0  0  0  0
    3.6825   -0.5329    0.2913 N   0  0  0  0  0  0  0  0  0  0  0  0
    4.6595   -0.1559    1.1279 C   0  0  0  0  0  0  0  0  0  0  0  0
    4.8007    1.0626    1.6662 N   0  0  0  0  0  0  0  0  0  0  0  0
    3.8630    1.9675    1.3163 C   0  0  0  0  0  0  0  0  0  0  0  0
    2.8074    1.6958    0.4704 C   0  0  0  0  0  0  0  0  0  0  0  0
    1.8906    2.7280    0.1179 C   0  0  0  0  0  0  0  0  0  0  0  0
    1.1794    3.6023   -0.1588 N   0  0  0  0  0  0  0  0  0  0  0  0
    2.0332   -0.5044   -2.2210 C   0  0  0  0  0  0  0  0  0  0  0  0
    1.0570   -0.9672   -3.0992 C   0  0  0  0  0  0  0  0  0  0  0  0
   -0.2811   -1.0166   -2.7003 C   0  0  0  0  0  0  0  0  0  0  0  0
   -0.6744   -0.6101   -1.4175 C   0  0  0  0  0  0  0  0  0  0  0  0
   -3.2519   -2.0445   -1.9114 H   0  0  0  0  0  0  0  0  0  0  0  0
   -4.0318   -0.4746   -1.5987 H   0  0  0  0  0  0  0  0  0  0  0  0
   -2.8983   -0.6002   -2.8918 H   0  0  0  0  0  0  0  0  0  0  0  0
   -4.3829   -0.9773    0.4365 H   0  0  0  0  0  0  0  0  0  0  0  0
   -4.7113   -0.5341    2.8114 H   0  0  0  0  0  0  0  0  0  0  0  0
   -2.8306    0.2525    4.2258 H   0  0  0  0  0  0  0  0  0  0  0  0
   -0.5892    0.5852    3.2129 H   0  0  0  0  0  0  0  0  0  0  0  0
    5.4013   -0.9027    1.3897 H   0  0  0  0  0  0  0  0  0  0  0  0
    4.0020    2.9548    1.7516 H   0  0  0  0  0  0  0  0  0  0  0  0
    3.0721   -0.4803   -2.5459 H   0  0  0  0  0  0  0  0  0  0  0  0
    1.3375   -1.2973   -4.0966 H   0  0  0  0  0  0  0  0  0  0  0  0
   -0.9990   -1.4033   -3.4163 H   0  0  0  0  0  0  0  0  0  0  0  0
  1  2  1  0
  2  3  1  0
  3  4  2  0
  4  5  1  0
  5  6  2  0
  6  7  1  0
  7  8  2  0
  8  9  1  0
  9 10  1  0
 10 11  2  0
 11 12  1  0
 12 13  2  0
 13 14  1  0
 14 15  2  0
 15 16  1  0
 16 17  2  0
 17 18  1  0
 18 19  3  0
 11 20  1  0
 20 21  2  0
 21 22  1  0
 22 23  2  0
 23  2  1  0
  8  3  1  0
 23 10  1  0
 17 12  1  0
  1 24  1  0
  1 25  1  0
  1 26  1  0
  4 27  1  0
  5 28  1  0
  6 29  1  0
  7 30  1  0
 14 31  1  0
 16 32  1  0
 20 33  1  0
 21 34  1  0
 22 35  1  0
M  END
