
     RDKit          3D

 37 42  0  0  0  0  0  0  0  0999 V2000
   -3.5784   -2.4175   -0.6468 Si  0  0  0  0  0  4  0  0  0  0  0  0
   -5.3046   -1.6937   -0.5255 C   0  0  0  0  0  0  0  0  0  0  0  0
   -5.3112   -0.3818   -0.2319 C   0  0  0  0  0  0  0  0  0  0  0  0
   -3.9682    0.1750   -0.0754 C   0  0  0  0  0  0  0  0  0  0  0  0
   -2.8431   -0.6977   -0.2443 C   0  0  0  0  0  0  0  0  0  0  0  0
   -1.4602   -0.3069   -0.1241 C   0  0  0  0  0  0  0  0  0  0  0  0
   -0.3958   -1.2175   -0.3028 C   0  0  0  0  0  0  0  0  0  0  0  0
    0.9298   -0.7969   -0.1773 C   0  0  0  0  0  0  0  0  0  0  0  0
    2.5134   -1.8077   -0.3661 Si  0  0  0  0  0  4  0  0  0  0  0  0
    3.4906   -0.2416    0.0076 C   0  0  0  0  0  0  0  0  0  0  0  0
    2.6966    0.8273    0.2282 C   0  0  0  0  0  0  0  0  0  0  0  0
    1.2551    0.5379    0.1293 C   0  0  0  0  0  0  0  0  0  0  0  0
    0.2455    1.4688    0.3139 C   0  0  0  0  0  0  0  0  0  0  0  0
   -1.1080    1.0597    0.1903 C   0  0  0  0  0  0  0  0  0  0  0  0
   -2.2396    1.9211    0.3565 C   0  0  0  0  0  0  0  0  0  0  0  0
   -2.1632    3.2625    0.6587 C   0  0  0  0  0  0  0  0  0  0  0  0
   -3.7164    3.9866    0.7841 S   0  0  0  0  0  0  0  0  0  0  0  0
   -4.5125    2.5072    0.4340 C   0  0  0  0  0  0  0  0  0  0  0  0
   -3.6147    1.4874    0.2268 C   0  0  0  0  0  0  0  0  0  0  0  0
    4.9098   -0.2891    0.0306 C   0  0  0  0  0  0  0  0  0  0  0  0
    5.6473   -1.3647   -0.1925 N   0  0  0  0  0  0  0  0  0  0  0  0
    6.9941   -1.0809   -0.0972 C   0  0  0  0  0  0  0  0  0  0  0  0
    7.3027    0.2236    0.2018 C   0  0  0  0  0  0  0  0  0  0  0  0
    5.8642    1.1288    0.3701 S   0  0  0  0  0  0  0  0  0  0  0  0
   -3.2458   -2.8614   -2.0234 H   0  0  0  0  0  0  0  0  0  0  0  0
   -3.3037   -3.4092    0.4226 H   0  0  0  0  0  0  0  0  0  0  0  0
   -6.1735   -2.3139   -0.6849 H   0  0  0  0  0  0  0  0  0  0  0  0
   -6.2079    0.2110   -0.1203 H   0  0  0  0  0  0  0  0  0  0  0  0
   -0.5859   -2.2608   -0.5409 H   0  0  0  0  0  0  0  0  0  0  0  0
    2.6518   -2.2980   -1.7632 H   0  0  0  0  0  0  0  0  0  0  0  0
    2.5937   -2.8480    0.6934 H   0  0  0  0  0  0  0  0  0  0  0  0
    3.0302    1.8300    0.4606 H   0  0  0  0  0  0  0  0  0  0  0  0
    0.5006    2.4961    0.5500 H   0  0  0  0  0  0  0  0  0  0  0  0
   -1.2919    3.8807    0.8177 H   0  0  0  0  0  0  0  0  0  0  0  0
   -5.5925    2.4829    0.4030 H   0  0  0  0  0  0  0  0  0  0  0  0
    7.7150   -1.8733   -0.2572 H   0  0  0  0  0  0  0  0  0  0  0  0
    8.2765    0.6742    0.3255 H   0  0  0  0  0  0  0  0  0  0  0  0
  1  2  1  0
  2  3  2  0
  3  4  1  0
  4  5  2  0
  5  6  1  0
  6  7  2  0
  7  8  1  0
  8  9  1  0
  9 10  1  0
 10 11  2  0
 11 12  1  0
 12 13  1  0
 13 14  2  0
 14 15  1  0
 15 16  2  0
 16 17  1  0
 17 18  1  0
 18 19  2  0
 10 20  1  0
 20 21  2  0
 21 22  1  0
 22 23  2  0
 23 24  1  0
  5  1  1  0
 14  6  1  0
 19 15  1  0
 24 20  1  0
 19  4  1  0
 12  8  2  0
  1 25  1  0
  1 26  1  0
  2 27  1  0
  3 28  1  0
  7 29  1  0
  9 30  1  0
  9 31  1  0
 11 32  1  0
 13 33  1  0
 16 34  1  0
 18 35  1  0
 22 36  1  0
 23 37  1  0
M  END
