
     RDKit          3D

 38 42  0  0  0  0  0  0  0  0999 V2000
   -3.5422   -2.0761   -0.4249 C   0  0  0  0  0  0  0  0  0  0  0  0
   -2.8579   -0.8376   -0.0698 N   0  0  0  0  0  0  0  0  0  0  0  0
   -3.6036    0.2967    0.3021 C   0  0  0  0  0  0  0  0  0  0  0  0
   -5.0039    0.3732    0.2738 C   0  0  0  0  0  0  0  0  0  0  0  0
   -5.6772    1.5364    0.6704 C   0  0  0  0  0  0  0  0  0  0  0  0
   -4.9632    2.6511    1.0996 C   0  0  0  0  0  0  0  0  0  0  0  0
   -3.5734    2.6075    1.1238 C   0  0  0  0  0  0  0  0  0  0  0  0
   -2.9057    1.4462    0.7219 C   0  0  0  0  0  0  0  0  0  0  0  0
   -1.5278    1.5047    0.7655 O   0  0  0  0  0  0  0  0  0  0  0  0
   -0.8285    0.4363    0.2413 C   0  0  0  0  0  0  0  0  0  0  0  0
    0.5605    0.6022    0.1688 C   0  0  0  0  0  0  0  0  0  0  0  0
    1.3770   -0.4054   -0.3580 C   0  0  0  0  0  0  0  0  0  0  0  0
    2.8380   -0.2383   -0.4435 C   0  0  0  0  0  0  0  0  0  0  0  0
    3.3971    0.8967   -1.0656 C   0  0  0  0  0  0  0  0  0  0  0  0
    4.7819    1.0953   -1.1706 C   0  0  0  0  0  0  0  0  0  0  0  0
    5.5887    0.1010   -0.6225 C   0  0  0  0  0  0  0  0  0  0  0  0
    6.9413   -0.0658   -0.5273 N   0  0  0  0  0  0  0  0  0  0  0  0
    7.2636   -1.2089    0.0998 N   0  0  0  0  0  0  0  0  0  0  0  0
    6.1289   -1.8137    0.4305 N   0  0  0  0  0  0  0  0  0  0  0  0
    5.0892   -1.0334   -0.0007 C   0  0  0  0  0  0  0  0  0  0  0  0
    3.7021   -1.2137    0.0952 C   0  0  0  0  0  0  0  0  0  0  0  0
    0.7527   -1.5770   -0.8085 C   0  0  0  0  0  0  0  0  0  0  0  0
   -0.6391   -1.7417   -0.7296 C   0  0  0  0  0  0  0  0  0  0  0  0
   -1.4599   -0.7436   -0.1917 C   0  0  0  0  0  0  0  0  0  0  0  0
   -3.7966   -2.0818   -1.4901 H   0  0  0  0  0  0  0  0  0  0  0  0
   -2.9406   -2.9637   -0.2020 H   0  0  0  0  0  0  0  0  0  0  0  0
   -4.4576   -2.2276    0.1570 H   0  0  0  0  0  0  0  0  0  0  0  0
   -5.6096   -0.4594   -0.0677 H   0  0  0  0  0  0  0  0  0  0  0  0
   -6.7636    1.5679    0.6399 H   0  0  0  0  0  0  0  0  0  0  0  0
   -5.4868    3.5518    1.4081 H   0  0  0  0  0  0  0  0  0  0  0  0
   -3.0051    3.4740    1.4493 H   0  0  0  0  0  0  0  0  0  0  0  0
    0.9965    1.5279    0.5369 H   0  0  0  0  0  0  0  0  0  0  0  0
    2.7371    1.6508   -1.4956 H   0  0  0  0  0  0  0  0  0  0  0  0
    5.1906    1.9748   -1.6559 H   0  0  0  0  0  0  0  0  0  0  0  0
    7.6855    0.5367   -0.8553 H   0  0  0  0  0  0  0  0  0  0  0  0
    3.3161   -2.0971    0.5937 H   0  0  0  0  0  0  0  0  0  0  0  0
    1.3471   -2.3789   -1.2439 H   0  0  0  0  0  0  0  0  0  0  0  0
   -1.0515   -2.6674   -1.1169 H   0  0  0  0  0  0  0  0  0  0  0  0
  1  2  1  0
  2  3  1  0
  3  4  2  0
  4  5  1  0
  5  6  2  0
  6  7  1  0
  7  8  2  0
  8  9  1  0
  9 10  1  0
 10 11  2  0
 11 12  1  0
 12 13  1  0
 13 14  2  0
 14 15  1  0
 15 16  2  0
 16 17  1  0
 17 18  1  0
 18 19  2  0
 19 20  1  0
 20 21  2  0
 12 22  2  0
 22 23  1  0
 23 24  2  0
 24  2  1  0
  8  3  1  0
 24 10  1  0
 21 13  1  0
 20 16  1  0
  1 25  1  0
  1 26  1  0
  1 27  1  0
  4 28  1  0
  5 29  1  0
  6 30  1  0
  7 31  1  0
 11 32  1  0
 14 33  1  0
 15 34  1  0
 17 35  1  0
 21 36  1  0
 22 37  1  0
 23 38  1  0
M  END
