
     RDKit          3D

 42 46  0  0  0  0  0  0  0  0999 V2000
   -4.0513   -0.2821    2.5025 C   0  0  0  0  0  0  0  0  0  0  0  0
   -3.5109   -0.1242    1.1566 N   0  0  0  0  0  0  0  0  0  0  0  0
   -4.3653   -0.2135    0.0412 C   0  0  0  0  0  0  0  0  0  0  0  0
   -5.7305   -0.5285    0.1070 C   0  0  0  0  0  0  0  0  0  0  0  0
   -6.5200   -0.5881   -1.0493 C   0  0  0  0  0  0  0  0  0  0  0  0
   -5.9592   -0.3385   -2.2981 C   0  0  0  0  0  0  0  0  0  0  0  0
   -4.6048   -0.0376   -2.3936 C   0  0  0  0  0  0  0  0  0  0  0  0
   -3.8198    0.0158   -1.2373 C   0  0  0  0  0  0  0  0  0  0  0  0
   -2.4854    0.3060   -1.4351 O   0  0  0  0  0  0  0  0  0  0  0  0
   -1.6476    0.2249   -0.3412 C   0  0  0  0  0  0  0  0  0  0  0  0
   -0.2824    0.3789   -0.6153 C   0  0  0  0  0  0  0  0  0  0  0  0
    0.6697    0.3007    0.4081 C   0  0  0  0  0  0  0  0  0  0  0  0
    2.1069    0.4607    0.1279 C   0  0  0  0  0  0  0  0  0  0  0  0
    2.5820    1.5545   -0.6172 C   0  0  0  0  0  0  0  0  0  0  0  0
    3.9454    1.7106   -0.8874 C   0  0  0  0  0  0  0  0  0  0  0  0
    4.8627    0.7693   -0.4127 C   0  0  0  0  0  0  0  0  0  0  0  0
    4.4141   -0.3209    0.3294 C   0  0  0  0  0  0  0  0  0  0  0  0
    3.0455   -0.4748    0.5967 C   0  0  0  0  0  0  0  0  0  0  0  0
    5.3723   -1.3209    0.8407 C   0  0  0  0  0  0  0  0  0  0  0  0
    5.0117   -2.2822    1.5069 O   0  0  0  0  0  0  0  0  0  0  0  0
    6.8017   -1.1278    0.5273 C   0  0  0  0  0  0  0  0  0  0  0  0
    7.2307   -0.0836   -0.1853 C   0  0  0  0  0  0  0  0  0  0  0  0
    6.3003    0.9389   -0.7023 C   0  0  0  0  0  0  0  0  0  0  0  0
    6.7234    1.8886   -1.3480 O   0  0  0  0  0  0  0  0  0  0  0  0
    0.2033    0.0586    1.7080 C   0  0  0  0  0  0  0  0  0  0  0  0
   -1.1662   -0.0900    1.9797 C   0  0  0  0  0  0  0  0  0  0  0  0
   -2.1237    0.0020    0.9631 C   0  0  0  0  0  0  0  0  0  0  0  0
   -4.0738   -1.3399    2.7853 H   0  0  0  0  0  0  0  0  0  0  0  0
   -5.0619    0.1296    2.5963 H   0  0  0  0  0  0  0  0  0  0  0  0
   -3.4738    0.2702    3.2514 H   0  0  0  0  0  0  0  0  0  0  0  0
   -6.2163   -0.7487    1.0515 H   0  0  0  0  0  0  0  0  0  0  0  0
   -7.5762   -0.8339   -0.9693 H   0  0  0  0  0  0  0  0  0  0  0  0
   -6.5728   -0.3847   -3.1936 H   0  0  0  0  0  0  0  0  0  0  0  0
   -4.1541    0.1505   -3.3637 H   0  0  0  0  0  0  0  0  0  0  0  0
    0.0263    0.5438   -1.6450 H   0  0  0  0  0  0  0  0  0  0  0  0
    1.8867    2.3075   -0.9873 H   0  0  0  0  0  0  0  0  0  0  0  0
    4.2844    2.5687   -1.4656 H   0  0  0  0  0  0  0  0  0  0  0  0
    2.7092   -1.3415    1.1660 H   0  0  0  0  0  0  0  0  0  0  0  0
    7.4829   -1.8796    0.9094 H   0  0  0  0  0  0  0  0  0  0  0  0
    8.2800    0.0613   -0.4156 H   0  0  0  0  0  0  0  0  0  0  0  0
    0.9052   -0.0102    2.5376 H   0  0  0  0  0  0  0  0  0  0  0  0
   -1.4483   -0.2898    3.0081 H   0  0  0  0  0  0  0  0  0  0  0  0
  1  2  1  0
  2  3  1  0
  3  4  2  0
  4  5  1  0
  5  6  2  0
  6  7  1  0
  7  8  2  0
  8  9  1  0
  9 10  1  0
 10 11  2  0
 11 12  1  0
 12 13  1  0
 13 14  2  0
 14 15  1  0
 15 16  2  0
 16 17  1  0
 17 18  2  0
 17 19  1  0
 19 20  2  0
 19 21  1  0
 21 22  2  0
 22 23  1  0
 23 24  2  0
 12 25  2  0
 25 26  1  0
 26 27  2  0
 27  2  1  0
  8  3  1  0
 27 10  1  0
 18 13  1  0
 23 16  1  0
  1 28  1  0
  1 29  1  0
  1 30  1  0
  4 31  1  0
  5 32  1  0
  6 33  1  0
  7 34  1  0
 11 35  1  0
 14 36  1  0
 15 37  1  0
 18 38  1  0
 21 39  1  0
 22 40  1  0
 25 41  1  0
 26 42  1  0
M  END
