
     RDKit          3D

 45 50  0  0  0  0  0  0  0  0999 V2000
   -4.6843    2.7830   -0.4303 C   0  0  0  0  0  0  0  0  0  0  0  0
   -4.2053    1.4250   -0.1968 N   0  0  0  0  0  0  0  0  0  0  0  0
   -5.1154    0.4070    0.1453 C   0  0  0  0  0  0  0  0  0  0  0  0
   -6.4857    0.6063    0.3691 C   0  0  0  0  0  0  0  0  0  0  0  0
   -7.3323   -0.4613    0.6968 C   0  0  0  0  0  0  0  0  0  0  0  0
   -6.8249   -1.7519    0.8127 C   0  0  0  0  0  0  0  0  0  0  0  0
   -5.4673   -1.9755    0.6099 C   0  0  0  0  0  0  0  0  0  0  0  0
   -4.6255   -0.9061    0.2880 C   0  0  0  0  0  0  0  0  0  0  0  0
   -3.2934   -1.2248    0.1213 O   0  0  0  0  0  0  0  0  0  0  0  0
   -2.4062   -0.1816   -0.0515 C   0  0  0  0  0  0  0  0  0  0  0  0
   -1.0518   -0.5383   -0.0655 C   0  0  0  0  0  0  0  0  0  0  0  0
   -0.0557    0.4333   -0.2167 C   0  0  0  0  0  0  0  0  0  0  0  0
    1.3704    0.0677   -0.2317 C   0  0  0  0  0  0  0  0  0  0  0  0
    1.8526   -0.9040   -1.1118 C   0  0  0  0  0  0  0  0  0  0  0  0
    3.2078   -1.2577   -1.1355 C   0  0  0  0  0  0  0  0  0  0  0  0
    4.1342   -0.6369   -0.2609 C   0  0  0  0  0  0  0  0  0  0  0  0
    3.6452    0.3305    0.6149 C   0  0  0  0  0  0  0  0  0  0  0  0
    2.2802    0.6894    0.6401 C   0  0  0  0  0  0  0  0  0  0  0  0
    4.8925    0.9756    1.5999 S   0  0  0  0  0  0  0  0  0  0  0  0
    6.0992   -0.0104    0.8835 C   0  0  0  0  0  0  0  0  0  0  0  0
    7.4712   -0.0334    1.2064 C   0  0  0  0  0  0  0  0  0  0  0  0
    8.3165   -0.9050    0.5175 C   0  0  0  0  0  0  0  0  0  0  0  0
    7.8133   -1.7370   -0.4709 C   0  0  0  0  0  0  0  0  0  0  0  0
    6.4516   -1.7101   -0.7869 C   0  0  0  0  0  0  0  0  0  0  0  0
    5.5638   -0.8357   -0.1061 C   0  0  0  0  0  0  0  0  0  0  0  0
   -0.4649    1.7676   -0.3483 C   0  0  0  0  0  0  0  0  0  0  0  0
   -1.8236    2.1206   -0.3399 C   0  0  0  0  0  0  0  0  0  0  0  0
   -2.8254    1.1525   -0.2036 C   0  0  0  0  0  0  0  0  0  0  0  0
   -5.6748    2.8006   -0.8972 H   0  0  0  0  0  0  0  0  0  0  0  0
   -4.7281    3.3415    0.5108 H   0  0  0  0  0  0  0  0  0  0  0  0
   -4.0527    3.3323   -1.1365 H   0  0  0  0  0  0  0  0  0  0  0  0
   -6.9318    1.5932    0.3091 H   0  0  0  0  0  0  0  0  0  0  0  0
   -8.3910   -0.2786    0.8643 H   0  0  0  0  0  0  0  0  0  0  0  0
   -7.4825   -2.5787    1.0665 H   0  0  0  0  0  0  0  0  0  0  0  0
   -5.0580   -2.9770    0.7062 H   0  0  0  0  0  0  0  0  0  0  0  0
   -0.7842   -1.5848    0.0605 H   0  0  0  0  0  0  0  0  0  0  0  0
    1.1745   -1.3967   -1.8070 H   0  0  0  0  0  0  0  0  0  0  0  0
    3.5461   -2.0162   -1.8368 H   0  0  0  0  0  0  0  0  0  0  0  0
    1.9368    1.4404    1.3481 H   0  0  0  0  0  0  0  0  0  0  0  0
    7.8673    0.6175    1.9809 H   0  0  0  0  0  0  0  0  0  0  0  0
    9.3763   -0.9296    0.7601 H   0  0  0  0  0  0  0  0  0  0  0  0
    8.4775   -2.4135   -1.0031 H   0  0  0  0  0  0  0  0  0  0  0  0
    6.0731   -2.3691   -1.5643 H   0  0  0  0  0  0  0  0  0  0  0  0
    0.2768    2.5554   -0.4700 H   0  0  0  0  0  0  0  0  0  0  0  0
   -2.0621    3.1747   -0.4332 H   0  0  0  0  0  0  0  0  0  0  0  0
  1  2  1  0
  2  3  1  0
  3  4  2  0
  4  5  1  0
  5  6  2  0
  6  7  1  0
  7  8  2  0
  8  9  1  0
  9 10  1  0
 10 11  2  0
 11 12  1  0
 12 13  1  0
 13 14  2  0
 14 15  1  0
 15 16  2  0
 16 17  1  0
 17 18  2  0
 17 19  1  0
 19 20  1  0
 20 21  2  0
 21 22  1  0
 22 23  2  0
 23 24  1  0
 24 25  2  0
 12 26  2  0
 26 27  1  0
 27 28  2  0
 28  2  1  0
  8  3  1  0
 28 10  1  0
 18 13  1  0
 25 20  1  0
 25 16  1  0
  1 29  1  0
  1 30  1  0
  1 31  1  0
  4 32  1  0
  5 33  1  0
  6 34  1  0
  7 35  1  0
 11 36  1  0
 14 37  1  0
 15 38  1  0
 18 39  1  0
 21 40  1  0
 22 41  1  0
 23 42  1  0
 24 43  1  0
 26 44  1  0
 27 45  1  0
M  END
