
     RDKit          3D

 32 35  0  0  0  0  0  0  0  0999 V2000
   -1.9538    2.4366   -0.6710 C   0  0  0  0  0  0  0  0  0  0  0  0
   -1.5133    1.1005   -0.2840 N   0  0  0  0  0  0  0  0  0  0  0  0
   -2.4618    0.0787   -0.0878 C   0  0  0  0  0  0  0  0  0  0  0  0
   -3.8378    0.2136   -0.3240 C   0  0  0  0  0  0  0  0  0  0  0  0
   -4.7229   -0.8483   -0.0943 C   0  0  0  0  0  0  0  0  0  0  0  0
   -4.2494   -2.0708    0.3724 C   0  0  0  0  0  0  0  0  0  0  0  0
   -2.8877   -2.2364    0.6013 C   0  0  0  0  0  0  0  0  0  0  0  0
   -2.0076   -1.1755    0.3655 C   0  0  0  0  0  0  0  0  0  0  0  0
   -0.6751   -1.4407    0.6060 O   0  0  0  0  0  0  0  0  0  0  0  0
    0.2417   -0.4731    0.2469 C   0  0  0  0  0  0  0  0  0  0  0  0
    1.5869   -0.8453    0.3675 C   0  0  0  0  0  0  0  0  0  0  0  0
    2.6018    0.0491    0.0188 C   0  0  0  0  0  0  0  0  0  0  0  0
    4.0027   -0.3113    0.1351 C   0  0  0  0  0  0  0  0  0  0  0  0
    5.1590    0.4820    0.3154 C   0  0  0  0  0  0  0  0  0  0  0  0
    6.2776   -0.2461    0.3586 N   0  0  0  0  0  0  0  0  0  0  0  0
    5.8613   -1.5577    0.2005 O   0  0  0  0  0  0  0  0  0  0  0  0
    4.5114   -1.5877    0.0669 C   0  0  0  0  0  0  0  0  0  0  0  0
    2.2362    1.3158   -0.4501 C   0  0  0  0  0  0  0  0  0  0  0  0
    0.8860    1.6834   -0.5646 C   0  0  0  0  0  0  0  0  0  0  0  0
   -0.1414    0.8021   -0.2075 C   0  0  0  0  0  0  0  0  0  0  0  0
   -2.0446    2.5101   -1.7599 H   0  0  0  0  0  0  0  0  0  0  0  0
   -1.2713    3.2186   -0.3215 H   0  0  0  0  0  0  0  0  0  0  0  0
   -2.9139    2.7057   -0.2178 H   0  0  0  0  0  0  0  0  0  0  0  0
   -4.2596    1.1380   -0.7037 H   0  0  0  0  0  0  0  0  0  0  0  0
   -5.7853   -0.7161   -0.2846 H   0  0  0  0  0  0  0  0  0  0  0  0
   -4.9372   -2.8928    0.5509 H   0  0  0  0  0  0  0  0  0  0  0  0
   -2.5058   -3.1888    0.9576 H   0  0  0  0  0  0  0  0  0  0  0  0
    1.8146   -1.8383    0.7452 H   0  0  0  0  0  0  0  0  0  0  0  0
    5.2384    1.5545    0.4224 H   0  0  0  0  0  0  0  0  0  0  0  0
    4.0867   -2.5707   -0.0733 H   0  0  0  0  0  0  0  0  0  0  0  0
    2.9916    2.0384   -0.7517 H   0  0  0  0  0  0  0  0  0  0  0  0
    0.6724    2.6727   -0.9560 H   0  0  0  0  0  0  0  0  0  0  0  0
  1  2  1  0
  2  3  1  0
  3  4  2  0
  4  5  1  0
  5  6  2  0
  6  7  1  0
  7  8  2  0
  8  9  1  0
  9 10  1  0
 10 11  2  0
 11 12  1  0
 12 13  1  0
 13 14  1  0
 14 15  2  0
 15 16  1  0
 16 17  1  0
 12 18  2  0
 18 19  1  0
 19 20  2  0
 20  2  1  0
  8  3  1  0
 20 10  1  0
 17 13  2  0
  1 21  1  0
  1 22  1  0
  1 23  1  0
  4 24  1  0
  5 25  1  0
  6 26  1  0
  7 27  1  0
 11 28  1  0
 14 29  1  0
 17 30  1  0
 18 31  1  0
 19 32  1  0
M  END
