
     RDKit          3D

 32 35  0  0  0  0  0  0  0  0999 V2000
   -1.8204   -2.5593   -0.7439 C   0  0  0  0  0  0  0  0  0  0  0  0
   -1.4753   -1.1809   -0.4141 N   0  0  0  0  0  0  0  0  0  0  0  0
   -2.4947   -0.2330   -0.2033 C   0  0  0  0  0  0  0  0  0  0  0  0
   -3.8664   -0.5262   -0.1999 C   0  0  0  0  0  0  0  0  0  0  0  0
   -4.8241    0.4756    0.0075 C   0  0  0  0  0  0  0  0  0  0  0  0
   -4.4296    1.7929    0.2212 C   0  0  0  0  0  0  0  0  0  0  0  0
   -3.0754    2.1089    0.2370 C   0  0  0  0  0  0  0  0  0  0  0  0
   -2.1232    1.1048    0.0346 C   0  0  0  0  0  0  0  0  0  0  0  0
   -0.8063    1.5132    0.0835 O   0  0  0  0  0  0  0  0  0  0  0  0
    0.1660    0.5348    0.0363 C   0  0  0  0  0  0  0  0  0  0  0  0
    1.4785    0.9774    0.2399 C   0  0  0  0  0  0  0  0  0  0  0  0
    2.5457    0.0746    0.2239 C   0  0  0  0  0  0  0  0  0  0  0  0
    3.9056    0.5648    0.4398 C   0  0  0  0  0  0  0  0  0  0  0  0
    5.0555   -0.1242    0.0979 C   0  0  0  0  0  0  0  0  0  0  0  0
    6.4464    0.7947    0.5101 S   0  0  0  0  0  0  0  0  0  0  0  0
    5.4234    2.0364    1.0966 C   0  0  0  0  0  0  0  0  0  0  0  0
    4.1319    1.8134    1.0061 N   0  0  0  0  0  0  0  0  0  0  0  0
    2.2598   -1.2797    0.0155 C   0  0  0  0  0  0  0  0  0  0  0  0
    0.9412   -1.7176   -0.1922 C   0  0  0  0  0  0  0  0  0  0  0  0
   -0.1330   -0.8192   -0.2011 C   0  0  0  0  0  0  0  0  0  0  0  0
   -1.9773   -3.1443    0.1686 H   0  0  0  0  0  0  0  0  0  0  0  0
   -2.7203   -2.6259   -1.3647 H   0  0  0  0  0  0  0  0  0  0  0  0
   -1.0493   -3.0494   -1.3477 H   0  0  0  0  0  0  0  0  0  0  0  0
   -4.2297   -1.5380   -0.3441 H   0  0  0  0  0  0  0  0  0  0  0  0
   -5.8811    0.2208    0.0043 H   0  0  0  0  0  0  0  0  0  0  0  0
   -5.1730    2.5689    0.3815 H   0  0  0  0  0  0  0  0  0  0  0  0
   -2.7544    3.1318    0.4116 H   0  0  0  0  0  0  0  0  0  0  0  0
    1.6574    2.0363    0.4140 H   0  0  0  0  0  0  0  0  0  0  0  0
    5.1631   -1.0917   -0.3687 H   0  0  0  0  0  0  0  0  0  0  0  0
    5.8232    2.9508    1.5149 H   0  0  0  0  0  0  0  0  0  0  0  0
    3.0480   -2.0277    0.0255 H   0  0  0  0  0  0  0  0  0  0  0  0
    0.7878   -2.7830   -0.3283 H   0  0  0  0  0  0  0  0  0  0  0  0
  1  2  1  0
  2  3  1  0
  3  4  2  0
  4  5  1  0
  5  6  2  0
  6  7  1  0
  7  8  2  0
  8  9  1  0
  9 10  1  0
 10 11  2  0
 11 12  1  0
 12 13  1  0
 13 14  2  0
 14 15  1  0
 15 16  1  0
 16 17  2  0
 12 18  2  0
 18 19  1  0
 19 20  2  0
 20  2  1  0
  8  3  1  0
 20 10  1  0
 17 13  1  0
  1 21  1  0
  1 22  1  0
  1 23  1  0
  4 24  1  0
  5 25  1  0
  6 26  1  0
  7 27  1  0
 11 28  1  0
 14 29  1  0
 16 30  1  0
 18 31  1  0
 19 32  1  0
M  END
