
     RDKit          3D

 38 42  0  0  0  0  0  0  0  0999 V2000
   -3.5108   -2.1609    1.5781 C   0  0  0  0  0  0  0  0  0  0  0  0
   -2.9816   -1.0575    0.7835 N   0  0  0  0  0  0  0  0  0  0  0  0
   -3.8581   -0.1020    0.2357 C   0  0  0  0  0  0  0  0  0  0  0  0
   -5.2416   -0.0671    0.4643 C   0  0  0  0  0  0  0  0  0  0  0  0
   -6.0522    0.9116   -0.1263 C   0  0  0  0  0  0  0  0  0  0  0  0
   -5.4950    1.8806   -0.9552 C   0  0  0  0  0  0  0  0  0  0  0  0
   -4.1239    1.8779   -1.1874 C   0  0  0  0  0  0  0  0  0  0  0  0
   -3.3182    0.9022   -0.5916 C   0  0  0  0  0  0  0  0  0  0  0  0
   -1.9696    0.9915   -0.8689 O   0  0  0  0  0  0  0  0  0  0  0  0
   -1.1215    0.1422   -0.1872 C   0  0  0  0  0  0  0  0  0  0  0  0
    0.2460    0.3702   -0.3864 C   0  0  0  0  0  0  0  0  0  0  0  0
    1.1976   -0.4188    0.2652 C   0  0  0  0  0  0  0  0  0  0  0  0
    2.6325   -0.2127    0.0874 C   0  0  0  0  0  0  0  0  0  0  0  0
    3.6388   -0.8720    0.6368 N   0  0  0  0  0  0  0  0  0  0  0  0
    4.7517   -0.2598    0.1192 C   0  0  0  0  0  0  0  0  0  0  0  0
    6.1163   -0.5041    0.3193 C   0  0  0  0  0  0  0  0  0  0  0  0
    7.0396    0.3042   -0.3621 C   0  0  0  0  0  0  0  0  0  0  0  0
    6.6129    1.3275   -1.2189 C   0  0  0  0  0  0  0  0  0  0  0  0
    5.2521    1.5833   -1.4285 C   0  0  0  0  0  0  0  0  0  0  0  0
    4.3721    0.7611   -0.7357 C   0  0  0  0  0  0  0  0  0  0  0  0
    3.0097    0.7986   -0.7622 O   0  0  0  0  0  0  0  0  0  0  0  0
    0.7422   -1.4321    1.1181 C   0  0  0  0  0  0  0  0  0  0  0  0
   -0.6290   -1.6599    1.3103 C   0  0  0  0  0  0  0  0  0  0  0  0
   -1.5920   -0.8854    0.6522 C   0  0  0  0  0  0  0  0  0  0  0  0
   -4.4860   -2.5041    1.2164 H   0  0  0  0  0  0  0  0  0  0  0  0
   -3.6082   -1.8652    2.6281 H   0  0  0  0  0  0  0  0  0  0  0  0
   -2.8814   -3.0553    1.5212 H   0  0  0  0  0  0  0  0  0  0  0  0
   -5.7265   -0.7871    1.1148 H   0  0  0  0  0  0  0  0  0  0  0  0
   -7.1222    0.9147    0.0672 H   0  0  0  0  0  0  0  0  0  0  0  0
   -6.1249    2.6383   -1.4130 H   0  0  0  0  0  0  0  0  0  0  0  0
   -3.6763    2.6342   -1.8257 H   0  0  0  0  0  0  0  0  0  0  0  0
    0.5514    1.1739   -1.0519 H   0  0  0  0  0  0  0  0  0  0  0  0
    6.4425   -1.2968    0.9830 H   0  0  0  0  0  0  0  0  0  0  0  0
    8.1049    0.1313   -0.2209 H   0  0  0  0  0  0  0  0  0  0  0  0
    7.3542    1.9371   -1.7329 H   0  0  0  0  0  0  0  0  0  0  0  0
    4.9028    2.3688   -2.0863 H   0  0  0  0  0  0  0  0  0  0  0  0
    1.4601   -2.0578    1.6478 H   0  0  0  0  0  0  0  0  0  0  0  0
   -0.9084   -2.4506    1.9986 H   0  0  0  0  0  0  0  0  0  0  0  0
  1  2  1  0
  2  3  1  0
  3  4  2  0
  4  5  1  0
  5  6  2  0
  6  7  1  0
  7  8  2  0
  8  9  1  0
  9 10  1  0
 10 11  2  0
 11 12  1  0
 12 13  1  0
 13 14  2  0
 14 15  1  0
 15 16  2  0
 16 17  1  0
 17 18  2  0
 18 19  1  0
 19 20  2  0
 20 21  1  0
 12 22  2  0
 22 23  1  0
 23 24  2  0
 24  2  1  0
  8  3  1  0
 24 10  1  0
 21 13  1  0
 20 15  1  0
  1 25  1  0
  1 26  1  0
  1 27  1  0
  4 28  1  0
  5 29  1  0
  6 30  1  0
  7 31  1  0
 11 32  1  0
 16 33  1  0
 17 34  1  0
 18 35  1  0
 19 36  1  0
 22 37  1  0
 23 38  1  0
M  END
