
     RDKit          3D

 35 38  0  0  0  0  0  0  0  0999 V2000
   -2.3020   -1.9339   -1.8500 C   0  0  0  0  0  0  0  0  0  0  0  0
   -1.9599   -0.9822   -0.7984 N   0  0  0  0  0  0  0  0  0  0  0  0
   -2.9769   -0.4013   -0.0178 C   0  0  0  0  0  0  0  0  0  0  0  0
   -4.3503   -0.5903   -0.2313 C   0  0  0  0  0  0  0  0  0  0  0  0
   -5.3052    0.0157    0.5961 C   0  0  0  0  0  0  0  0  0  0  0  0
   -4.9063    0.8287    1.6529 C   0  0  0  0  0  0  0  0  0  0  0  0
   -3.5511    1.0446    1.8783 C   0  0  0  0  0  0  0  0  0  0  0  0
   -2.6019    0.4417    1.0469 C   0  0  0  0  0  0  0  0  0  0  0  0
   -1.2841    0.7269    1.3402 O   0  0  0  0  0  0  0  0  0  0  0  0
   -0.3234    0.2713    0.4605 C   0  0  0  0  0  0  0  0  0  0  0  0
    0.9834    0.7045    0.7162 C   0  0  0  0  0  0  0  0  0  0  0  0
    2.0472    0.3162   -0.1091 C   0  0  0  0  0  0  0  0  0  0  0  0
    3.4180    0.7803    0.1745 C   0  0  0  0  0  0  0  0  0  0  0  0
    3.5237    2.1263    0.3256 N   0  0  0  0  0  0  0  0  0  0  0  0
    4.7433    2.6200    0.5824 C   0  0  0  0  0  0  0  0  0  0  0  0
    5.8646    1.8997    0.7105 N   0  0  0  0  0  0  0  0  0  0  0  0
    5.7207    0.5665    0.5683 C   0  0  0  0  0  0  0  0  0  0  0  0
    4.5178   -0.0550    0.2993 C   0  0  0  0  0  0  0  0  0  0  0  0
    4.4605   -1.4739    0.1907 C   0  0  0  0  0  0  0  0  0  0  0  0
    4.4439   -2.6296    0.0887 N   0  0  0  0  0  0  0  0  0  0  0  0
    1.7448   -0.4943   -1.2135 C   0  0  0  0  0  0  0  0  0  0  0  0
    0.4338   -0.9320   -1.4625 C   0  0  0  0  0  0  0  0  0  0  0  0
   -0.6264   -0.5730   -0.6222 C   0  0  0  0  0  0  0  0  0  0  0  0
   -1.5041   -2.6624   -2.0291 H   0  0  0  0  0  0  0  0  0  0  0  0
   -3.1670   -2.5519   -1.5863 H   0  0  0  0  0  0  0  0  0  0  0  0
   -2.5160   -1.4091   -2.7871 H   0  0  0  0  0  0  0  0  0  0  0  0
   -4.7173   -1.1995   -1.0504 H   0  0  0  0  0  0  0  0  0  0  0  0
   -6.3635   -0.1485    0.4087 H   0  0  0  0  0  0  0  0  0  0  0  0
   -5.6479    1.2974    2.2939 H   0  0  0  0  0  0  0  0  0  0  0  0
   -3.2279    1.6840    2.6947 H   0  0  0  0  0  0  0  0  0  0  0  0
    1.1634    1.3575    1.5681 H   0  0  0  0  0  0  0  0  0  0  0  0
    4.8276    3.6955    0.6964 H   0  0  0  0  0  0  0  0  0  0  0  0
    6.6406   -0.0025    0.6868 H   0  0  0  0  0  0  0  0  0  0  0  0
    2.5237   -0.7915   -1.9138 H   0  0  0  0  0  0  0  0  0  0  0  0
    0.2741   -1.5462   -2.3429 H   0  0  0  0  0  0  0  0  0  0  0  0
  1  2  1  0
  2  3  1  0
  3  4  2  0
  4  5  1  0
  5  6  2  0
  6  7  1  0
  7  8  2  0
  8  9  1  0
  9 10  1  0
 10 11  2  0
 11 12  1  0
 12 13  1  0
 13 14  2  0
 14 15  1  0
 15 16  2  0
 16 17  1  0
 17 18  2  0
 18 19  1  0
 19 20  3  0
 12 21  2  0
 21 22  1  0
 22 23  2  0
 23  2  1  0
  8  3  1  0
 23 10  1  0
 18 13  1  0
  1 24  1  0
  1 25  1  0
  1 26  1  0
  4 27  1  0
  5 28  1  0
  6 29  1  0
  7 30  1  0
 11 31  1  0
 15 32  1  0
 17 33  1  0
 21 34  1  0
 22 35  1  0
M  END
