
     RDKit          3D

 44 50  0  0  0  0  0  0  0  0999 V2000
    6.9840   -1.8698    0.6210 C   0  0  0  0  0  0  0  0  0  0  0  0
    6.3410   -0.6015    0.3967 N   0  0  0  0  0  0  0  0  0  0  0  0
    6.9754    0.6129    0.3630 C   0  0  0  0  0  0  0  0  0  0  0  0
    8.2348    1.2591    0.4838 C   0  0  0  0  0  0  0  0  0  0  0  0
    8.0670    2.6329    0.3115 C   0  0  0  0  0  0  0  0  0  0  0  0
    6.4247    3.1319    0.0098 S   0  0  0  0  0  0  0  0  0  0  0  0
    6.0008    1.5186    0.1200 C   0  0  0  0  0  0  0  0  0  0  0  0
    4.8157    0.8834    0.0107 C   0  0  0  0  0  0  0  0  0  0  0  0
    3.2715    1.4358   -0.2802 S   0  0  0  0  0  0  0  0  0  0  0  0
    2.7297   -0.2256   -0.1911 C   0  0  0  0  0  0  0  0  0  0  0  0
    1.3378   -0.5767   -0.3918 C   0  0  0  0  0  0  0  0  0  0  0  0
    0.8585   -1.7407   -0.9724 C   0  0  0  0  0  0  0  0  0  0  0  0
   -0.5651   -1.7872   -1.0182 C   0  0  0  0  0  0  0  0  0  0  0  0
   -1.1496   -0.6714   -0.4486 C   0  0  0  0  0  0  0  0  0  0  0  0
   -2.5670   -0.3500   -0.3058 C   0  0  0  0  0  0  0  0  0  0  0  0
   -3.1504    0.0556    0.9188 C   0  0  0  0  0  0  0  0  0  0  0  0
   -4.5280    0.3429    1.0623 C   0  0  0  0  0  0  0  0  0  0  0  0
   -5.4558    0.2533   -0.0037 C   0  0  0  0  0  0  0  0  0  0  0  0
   -6.8759    0.5605    0.1465 C   0  0  0  0  0  0  0  0  0  0  0  0
   -7.6716    1.3985   -0.6169 C   0  0  0  0  0  0  0  0  0  0  0  0
   -9.0228    1.4361   -0.1590 C   0  0  0  0  0  0  0  0  0  0  0  0
   -9.2228    0.6193    0.9368 C   0  0  0  0  0  0  0  0  0  0  0  0
   -7.7867   -0.1790    1.4091 S   0  0  0  0  0  0  0  0  0  0  0  0
   -4.9310   -0.1477   -1.2677 C   0  0  0  0  0  0  0  0  0  0  0  0
   -5.6136   -0.3133   -2.4148 N   0  0  0  0  0  0  0  0  0  0  0  0
   -4.5218   -0.7737   -3.5745 S   0  0  0  0  0  0  0  0  0  0  0  0
   -3.1292   -0.8174   -2.6778 N   0  0  0  0  0  0  0  0  0  0  0  0
   -3.4502   -0.4583   -1.4224 C   0  0  0  0  0  0  0  0  0  0  0  0
    0.0422    0.4184    0.1341 S   0  0  0  0  0  0  0  0  0  0  0  0
    3.7656   -1.1346    0.0496 C   0  0  0  0  0  0  0  0  0  0  0  0
    4.9990   -0.4427    0.1732 C   0  0  0  0  0  0  0  0  0  0  0  0
    7.0106   -2.4150   -0.3284 H   0  0  0  0  0  0  0  0  0  0  0  0
    8.0011   -1.7098    0.9891 H   0  0  0  0  0  0  0  0  0  0  0  0
    6.4120   -2.4316    1.3676 H   0  0  0  0  0  0  0  0  0  0  0  0
    9.1849    0.7811    0.6792 H   0  0  0  0  0  0  0  0  0  0  0  0
    8.8344    3.4002    0.3480 H   0  0  0  0  0  0  0  0  0  0  0  0
    1.4975   -2.5223   -1.3672 H   0  0  0  0  0  0  0  0  0  0  0  0
   -1.1331   -2.6065   -1.4426 H   0  0  0  0  0  0  0  0  0  0  0  0
   -2.5186    0.1462    1.8081 H   0  0  0  0  0  0  0  0  0  0  0  0
   -4.8784    0.6560    2.0496 H   0  0  0  0  0  0  0  0  0  0  0  0
   -7.3007    1.9616   -1.4705 H   0  0  0  0  0  0  0  0  0  0  0  0
   -9.8073    2.0280   -0.6149 H   0  0  0  0  0  0  0  0  0  0  0  0
  -10.1434    0.4514    1.4849 H   0  0  0  0  0  0  0  0  0  0  0  0
    3.6349   -2.2089    0.1315 H   0  0  0  0  0  0  0  0  0  0  0  0
  1  2  1  0
  2  3  1  0
  3  4  1  0
  4  5  2  0
  5  6  1  0
  6  7  1  0
  7  8  1  0
  8  9  1  0
  9 10  1  0
 10 11  1  0
 11 12  2  0
 12 13  1  0
 13 14  2  0
 14 15  1  0
 15 16  2  0
 16 17  1  0
 17 18  2  0
 18 19  1  0
 19 20  2  0
 20 21  1  0
 21 22  2  0
 22 23  1  0
 18 24  1  0
 24 25  2  0
 25 26  1  0
 26 27  1  0
 27 28  2  0
 14 29  1  0
 10 30  2  0
 30 31  1  0
 31  2  1  0
  7  3  2  0
 31  8  2  0
 29 11  1  0
 28 15  1  0
 23 19  1  0
 28 24  1  0
  1 32  1  0
  1 33  1  0
  1 34  1  0
  4 35  1  0
  5 36  1  0
 12 37  1  0
 13 38  1  0
 16 39  1  0
 17 40  1  0
 20 41  1  0
 21 42  1  0
 22 43  1  0
 30 44  1  0
M  END
