
     RDKit          3D

 34 36  0  0  0  0  0  0  0  0999 V2000
    6.2377    1.9254    0.2518 C   0  0  0  0  0  0  0  0  0  0  0  0
    5.3173    0.8155    0.2925 N   0  0  0  0  0  0  0  0  0  0  0  0
    4.2037    0.6410   -0.4744 C   0  0  0  0  0  0  0  0  0  0  0  0
    3.6494   -0.5649   -0.0899 C   0  0  0  0  0  0  0  0  0  0  0  0
    2.4310   -1.2292   -0.6104 C   0  0  0  0  0  0  0  0  0  0  0  0
    1.2785   -0.4910   -0.1470 N   0  0  0  0  0  0  0  0  0  0  0  0
    0.0261   -0.8777   -0.5782 C   0  0  0  0  0  0  0  0  0  0  0  0
   -0.1371   -1.7789   -1.3888 O   0  0  0  0  0  0  0  0  0  0  0  0
   -0.9485   -0.1057    0.0140 N   0  0  0  0  0  0  0  0  0  0  0  0
   -2.3464   -0.2375   -0.1084 C   0  0  0  0  0  0  0  0  0  0  0  0
   -2.9726   -1.3182   -0.7596 C   0  0  0  0  0  0  0  0  0  0  0  0
   -4.3692   -1.4008   -0.8420 C   0  0  0  0  0  0  0  0  0  0  0  0
   -5.1082   -0.3949   -0.2632 C   0  0  0  0  0  0  0  0  0  0  0  0
   -4.5062    0.6593    0.3782 C   0  0  0  0  0  0  0  0  0  0  0  0
   -3.1337    0.7665    0.4747 C   0  0  0  0  0  0  0  0  0  0  0  0
   -5.4085    1.5430    0.8838 O   0  0  0  0  0  0  0  0  0  0  0  0
   -6.6486    0.9228    0.4819 C   0  0  0  0  0  0  0  0  0  0  0  0
   -6.4643   -0.3100   -0.2438 O   0  0  0  0  0  0  0  0  0  0  0  0
    4.5205   -1.0306    0.9213 C   0  0  0  0  0  0  0  0  0  0  0  0
    5.5265   -0.1876    1.1631 N   0  0  0  0  0  0  0  0  0  0  0  0
    7.2303    1.5412    0.0039 H   0  0  0  0  0  0  0  0  0  0  0  0
    6.2442    2.4040    1.2342 H   0  0  0  0  0  0  0  0  0  0  0  0
    5.9132    2.6394   -0.5092 H   0  0  0  0  0  0  0  0  0  0  0  0
    3.8995    1.3650   -1.2178 H   0  0  0  0  0  0  0  0  0  0  0  0
    2.3512   -2.2604   -0.2483 H   0  0  0  0  0  0  0  0  0  0  0  0
    2.4298   -1.2503   -1.7059 H   0  0  0  0  0  0  0  0  0  0  0  0
    1.3225   -0.1683    0.8077 H   0  0  0  0  0  0  0  0  0  0  0  0
   -0.6119    0.7263    0.4754 H   0  0  0  0  0  0  0  0  0  0  0  0
   -2.3928   -2.1181   -1.2113 H   0  0  0  0  0  0  0  0  0  0  0  0
   -4.8501   -2.2321   -1.3451 H   0  0  0  0  0  0  0  0  0  0  0  0
   -2.6975    1.6141    0.9902 H   0  0  0  0  0  0  0  0  0  0  0  0
   -7.2017    1.6246   -0.1529 H   0  0  0  0  0  0  0  0  0  0  0  0
   -7.2435    0.7162    1.3791 H   0  0  0  0  0  0  0  0  0  0  0  0
    4.4594   -1.9480    1.4937 H   0  0  0  0  0  0  0  0  0  0  0  0
  1  2  1  0
  2  3  1  0
  3  4  2  0
  4  5  1  0
  5  6  1  0
  6  7  1  0
  7  8  2  0
  7  9  1  0
  9 10  1  0
 10 11  2  0
 11 12  1  0
 12 13  2  0
 13 14  1  0
 14 15  2  0
 14 16  1  0
 16 17  1  0
 17 18  1  0
  4 19  1  0
 19 20  2  0
 20  2  1  0
 15 10  1  0
 18 13  1  0
  1 21  1  0
  1 22  1  0
  1 23  1  0
  3 24  1  0
  5 25  1  0
  5 26  1  0
  6 27  1  0
  9 28  1  0
 11 29  1  0
 12 30  1  0
 15 31  1  0
 17 32  1  0
 17 33  1  0
 19 34  1  0
M  END
