
     RDKit          3D

 35 39  0  0  0  0  0  0  0  0999 V2000
    3.5587    0.5194   -2.2753 C   0  0  0  0  0  0  0  0  0  0  0  0
    3.7254   -0.4771   -1.2393 N   0  0  0  0  0  0  0  0  0  0  0  0
    4.8207   -1.2988   -1.1320 C   0  0  0  0  0  0  0  0  0  0  0  0
    4.6171   -2.1459   -0.0665 C   0  0  0  0  0  0  0  0  0  0  0  0
    3.3575   -1.8229    0.4907 C   0  0  0  0  0  0  0  0  0  0  0  0
    2.8245   -0.7769   -0.2408 C   0  0  0  0  0  0  0  0  0  0  0  0
    1.5753   -0.1126   -0.0455 C   0  0  0  0  0  0  0  0  0  0  0  0
    0.0652   -0.8535   -0.3896 S   0  0  0  0  0  0  0  0  0  0  0  0
   -0.8482    0.5359    0.0818 C   0  0  0  0  0  0  0  0  0  0  0  0
   -2.2821    0.5594   -0.0010 C   0  0  0  0  0  0  0  0  0  0  0  0
   -3.1354    1.9222   -0.6557 S   0  0  0  0  0  0  0  0  0  0  0  0
   -4.6854    1.2017   -0.4144 C   0  0  0  0  0  0  0  0  0  0  0  0
   -4.5252   -0.0311    0.1371 C   0  0  0  0  0  0  0  0  0  0  0  0
   -5.3866   -1.0722    0.5609 C   0  0  0  0  0  0  0  0  0  0  0  0
   -4.6435   -2.0904    1.0506 C   0  0  0  0  0  0  0  0  0  0  0  0
   -3.1453   -1.7748    0.9745 C   0  0  0  0  0  0  0  0  0  0  0  0
   -3.1817   -0.4109    0.3674 C   0  0  0  0  0  0  0  0  0  0  0  0
    0.0348    1.4808    0.4985 C   0  0  0  0  0  0  0  0  0  0  0  0
   -0.0923    2.7930    1.0343 C   0  0  0  0  0  0  0  0  0  0  0  0
    1.1408    3.3779    1.3405 C   0  0  0  0  0  0  0  0  0  0  0  0
    2.5645    2.4024    1.0237 S   0  0  0  0  0  0  0  0  0  0  0  0
    1.3925    1.1505    0.4466 C   0  0  0  0  0  0  0  0  0  0  0  0
    2.5326    0.4829   -2.6490 H   0  0  0  0  0  0  0  0  0  0  0  0
    3.7850    1.4992   -1.8496 H   0  0  0  0  0  0  0  0  0  0  0  0
    4.2469    0.3036   -3.0971 H   0  0  0  0  0  0  0  0  0  0  0  0
    5.6513   -1.2194   -1.8213 H   0  0  0  0  0  0  0  0  0  0  0  0
    5.3005   -2.9137    0.2718 H   0  0  0  0  0  0  0  0  0  0  0  0
    2.8897   -2.2970    1.3441 H   0  0  0  0  0  0  0  0  0  0  0  0
   -5.5915    1.7226   -0.6888 H   0  0  0  0  0  0  0  0  0  0  0  0
   -6.4654   -1.0468    0.5004 H   0  0  0  0  0  0  0  0  0  0  0  0
   -5.0363   -3.0155    1.4455 H   0  0  0  0  0  0  0  0  0  0  0  0
   -2.6993   -1.7647    1.9728 H   0  0  0  0  0  0  0  0  0  0  0  0
   -2.6365   -2.4981    0.3317 H   0  0  0  0  0  0  0  0  0  0  0  0
   -1.0300    3.3075    1.2055 H   0  0  0  0  0  0  0  0  0  0  0  0
    1.3018    4.3631    1.7569 H   0  0  0  0  0  0  0  0  0  0  0  0
  1  2  1  0
  2  3  1  0
  3  4  2  0
  4  5  1  0
  5  6  2  0
  6  7  1  0
  7  8  1  0
  8  9  1  0
  9 10  1  0
 10 11  1  0
 11 12  1  0
 12 13  2  0
 13 14  1  0
 14 15  2  0
 15 16  1  0
 16 17  1  0
  9 18  2  0
 18 19  1  0
 19 20  2  0
 20 21  1  0
 21 22  1  0
  6  2  1  0
 22  7  2  0
 17 10  2  0
 22 18  1  0
 17 13  1  0
  1 23  1  0
  1 24  1  0
  1 25  1  0
  3 26  1  0
  4 27  1  0
  5 28  1  0
 12 29  1  0
 14 30  1  0
 15 31  1  0
 16 32  1  0
 16 33  1  0
 19 34  1  0
 20 35  1  0
M  END
