
     RDKit          3D

 35 37  0  0  0  0  0  0  0  0999 V2000
   -0.7680   -3.7191   -0.5339 C   0  0  0  0  0  0  0  0  0  0  0  0
    0.1791   -2.6662   -0.2434 N   0  0  0  0  0  0  0  0  0  0  0  0
    1.4976   -2.9600   -0.3146 N   0  0  0  0  0  0  0  0  0  0  0  0
    2.1219   -1.7945   -0.0935 C   0  0  0  0  0  0  0  0  0  0  0  0
    1.1435   -0.7634    0.1457 C   0  0  0  0  0  0  0  0  0  0  0  0
    1.4071    0.5775    0.4298 C   0  0  0  0  0  0  0  0  0  0  0  0
    2.7959    0.8516    0.4492 C   0  0  0  0  0  0  0  0  0  0  0  0
    3.1977    2.2584    0.7554 C   0  0  0  0  0  0  0  0  0  0  0  0
    4.5683    2.7313    0.3470 C   0  0  0  0  0  0  0  0  0  0  0  0
    2.4171    3.0034    1.3439 O   0  0  0  0  0  0  0  0  0  0  0  0
    3.7958   -0.1513    0.2133 C   0  0  0  0  0  0  0  0  0  0  0  0
    3.4958   -1.5056   -0.0662 C   0  0  0  0  0  0  0  0  0  0  0  0
   -0.0958   -1.3550    0.0685 C   0  0  0  0  0  0  0  0  0  0  0  0
   -1.4029   -0.7981    0.2288 C   0  0  0  0  0  0  0  0  0  0  0  0
   -2.4823   -1.2816    0.9467 C   0  0  0  0  0  0  0  0  0  0  0  0
   -3.5361   -0.3452    0.8010 C   0  0  0  0  0  0  0  0  0  0  0  0
   -3.0542    0.6709   -0.0008 C   0  0  0  0  0  0  0  0  0  0  0  0
   -1.7600    0.3933   -0.3403 O   0  0  0  0  0  0  0  0  0  0  0  0
   -3.6453    1.8959   -0.5037 C   0  0  0  0  0  0  0  0  0  0  0  0
   -5.0519    2.1976   -0.0459 C   0  0  0  0  0  0  0  0  0  0  0  0
   -3.0713    2.6710   -1.2687 O   0  0  0  0  0  0  0  0  0  0  0  0
   -1.1486   -4.1064    0.4140 H   0  0  0  0  0  0  0  0  0  0  0  0
   -0.2637   -4.5164   -1.0871 H   0  0  0  0  0  0  0  0  0  0  0  0
   -1.5776   -3.3160   -1.1468 H   0  0  0  0  0  0  0  0  0  0  0  0
    0.6527    1.3332    0.6126 H   0  0  0  0  0  0  0  0  0  0  0  0
    4.5704    3.8250    0.3047 H   0  0  0  0  0  0  0  0  0  0  0  0
    4.8241    2.3664   -0.6514 H   0  0  0  0  0  0  0  0  0  0  0  0
    5.3093    2.4031    1.0799 H   0  0  0  0  0  0  0  0  0  0  0  0
    4.8508    0.1145    0.2629 H   0  0  0  0  0  0  0  0  0  0  0  0
    4.2525   -2.2589   -0.2371 H   0  0  0  0  0  0  0  0  0  0  0  0
   -2.5027   -2.1928    1.5285 H   0  0  0  0  0  0  0  0  0  0  0  0
   -4.5239   -0.4070    1.2367 H   0  0  0  0  0  0  0  0  0  0  0  0
   -5.3769    3.1532   -0.4684 H   0  0  0  0  0  0  0  0  0  0  0  0
   -5.0841    2.2749    1.0444 H   0  0  0  0  0  0  0  0  0  0  0  0
   -5.7346    1.4165   -0.3913 H   0  0  0  0  0  0  0  0  0  0  0  0
  1  2  1  0
  2  3  1  0
  3  4  2  0
  4  5  1  0
  5  6  1  0
  6  7  2  0
  7  8  1  0
  8  9  1  0
  8 10  2  0
  7 11  1  0
 11 12  2  0
  5 13  2  0
 13 14  1  0
 14 15  2  0
 15 16  1  0
 16 17  2  0
 17 18  1  0
 17 19  1  0
 19 20  1  0
 19 21  2  0
 13  2  1  0
 12  4  1  0
 18 14  1  0
  1 22  1  0
  1 23  1  0
  1 24  1  0
  6 25  1  0
  9 26  1  0
  9 27  1  0
  9 28  1  0
 11 29  1  0
 12 30  1  0
 15 31  1  0
 16 32  1  0
 20 33  1  0
 20 34  1  0
 20 35  1  0
M  END
