
     RDKit          3D

 39 41  0  0  0  0  0  0  0  0999 V2000
    0.2326    2.4867   -1.8850 C   0  0  0  0  0  0  0  0  0  0  0  0
   -0.8720    1.7483   -1.3113 N   0  0  0  0  0  0  0  0  0  0  0  0
   -2.1263    2.0813   -1.6921 N   0  0  0  0  0  0  0  0  0  0  0  0
   -2.9245    1.2452   -1.0178 C   0  0  0  0  0  0  0  0  0  0  0  0
   -2.1251    0.3812   -0.1825 C   0  0  0  0  0  0  0  0  0  0  0  0
   -2.6145   -0.6354    0.6418 C   0  0  0  0  0  0  0  0  0  0  0  0
   -4.0281   -0.7357    0.6006 C   0  0  0  0  0  0  0  0  0  0  0  0
   -4.6465   -1.7947    1.4612 C   0  0  0  0  0  0  0  0  0  0  0  0
   -6.1196   -2.0815    1.3321 C   0  0  0  0  0  0  0  0  0  0  0  0
   -3.9495   -2.4123    2.2645 O   0  0  0  0  0  0  0  0  0  0  0  0
   -4.8450    0.1211   -0.2083 C   0  0  0  0  0  0  0  0  0  0  0  0
   -4.3243    1.1351   -1.0454 C   0  0  0  0  0  0  0  0  0  0  0  0
   -0.8078    0.7389   -0.3728 C   0  0  0  0  0  0  0  0  0  0  0  0
    0.4201    0.2610    0.1932 C   0  0  0  0  0  0  0  0  0  0  0  0
    0.6631   -0.2982    1.4362 C   0  0  0  0  0  0  0  0  0  0  0  0
    2.0457   -0.5987    1.5041 C   0  0  0  0  0  0  0  0  0  0  0  0
    2.5968   -0.1983    0.3034 C   0  0  0  0  0  0  0  0  0  0  0  0
    1.6098    0.3262   -0.4842 O   0  0  0  0  0  0  0  0  0  0  0  0
    3.9423   -0.2316   -0.2191 C   0  0  0  0  0  0  0  0  0  0  0  0
    4.7743   -0.8091    0.6977 O   0  0  0  0  0  0  0  0  0  0  0  0
    6.1517   -0.9157    0.3108 C   0  0  0  0  0  0  0  0  0  0  0  0
    6.8957    0.3577    0.6671 C   0  0  0  0  0  0  0  0  0  0  0  0
    4.3001    0.1952   -1.3102 O   0  0  0  0  0  0  0  0  0  0  0  0
   -0.1556    3.3337   -2.4577 H   0  0  0  0  0  0  0  0  0  0  0  0
    0.8665    2.8597   -1.0769 H   0  0  0  0  0  0  0  0  0  0  0  0
    0.7859    1.8178   -2.5483 H   0  0  0  0  0  0  0  0  0  0  0  0
   -2.0073   -1.2988    1.2426 H   0  0  0  0  0  0  0  0  0  0  0  0
   -6.3640   -2.9721    1.9198 H   0  0  0  0  0  0  0  0  0  0  0  0
   -6.7020   -1.2424    1.7206 H   0  0  0  0  0  0  0  0  0  0  0  0
   -6.3794   -2.2906    0.2911 H   0  0  0  0  0  0  0  0  0  0  0  0
   -5.9282    0.0115   -0.1985 H   0  0  0  0  0  0  0  0  0  0  0  0
   -4.9439    1.7747   -1.6592 H   0  0  0  0  0  0  0  0  0  0  0  0
   -0.0666   -0.4624    2.2170 H   0  0  0  0  0  0  0  0  0  0  0  0
    2.5806   -1.0453    2.3315 H   0  0  0  0  0  0  0  0  0  0  0  0
    6.5758   -1.7570    0.8688 H   0  0  0  0  0  0  0  0  0  0  0  0
    6.2508   -1.1549   -0.7542 H   0  0  0  0  0  0  0  0  0  0  0  0
    6.7887    0.5795    1.7340 H   0  0  0  0  0  0  0  0  0  0  0  0
    6.4906    1.2157    0.1214 H   0  0  0  0  0  0  0  0  0  0  0  0
    7.9594    0.2643    0.4309 H   0  0  0  0  0  0  0  0  0  0  0  0
  1  2  1  0
  2  3  1  0
  3  4  2  0
  4  5  1  0
  5  6  1  0
  6  7  2  0
  7  8  1  0
  8  9  1  0
  8 10  2  0
  7 11  1  0
 11 12  2  0
  5 13  2  0
 13 14  1  0
 14 15  2  0
 15 16  1  0
 16 17  2  0
 17 18  1  0
 17 19  1  0
 19 20  1  0
 20 21  1  0
 21 22  1  0
 19 23  2  0
 13  2  1  0
 12  4  1  0
 18 14  1  0
  1 24  1  0
  1 25  1  0
  1 26  1  0
  6 27  1  0
  9 28  1  0
  9 29  1  0
  9 30  1  0
 11 31  1  0
 12 32  1  0
 15 33  1  0
 16 34  1  0
 21 35  1  0
 21 36  1  0
 22 37  1  0
 22 38  1  0
 22 39  1  0
M  END
