
     RDKit          3D

 30 32  0  0  0  0  0  0  0  0999 V2000
   -0.2453   -3.3668   -0.4970 C   0  0  0  0  0  0  0  0  0  0  0  0
   -0.8050   -2.0352   -0.5580 N   0  0  0  0  0  0  0  0  0  0  0  0
   -2.1156   -1.9137   -0.8724 N   0  0  0  0  0  0  0  0  0  0  0  0
   -2.3779   -0.6049   -0.7552 C   0  0  0  0  0  0  0  0  0  0  0  0
   -1.1729    0.0948   -0.3801 C   0  0  0  0  0  0  0  0  0  0  0  0
   -1.0447    1.4695   -0.1748 C   0  0  0  0  0  0  0  0  0  0  0  0
   -2.2736    2.1374   -0.3712 C   0  0  0  0  0  0  0  0  0  0  0  0
   -2.3143    3.6069   -0.1912 C   0  0  0  0  0  0  0  0  0  0  0  0
   -1.3234    4.2606    0.1084 O   0  0  0  0  0  0  0  0  0  0  0  0
   -3.4925    1.4805   -0.7393 C   0  0  0  0  0  0  0  0  0  0  0  0
   -3.5871    0.0857   -0.9457 C   0  0  0  0  0  0  0  0  0  0  0  0
   -0.1707   -0.8440   -0.2882 C   0  0  0  0  0  0  0  0  0  0  0  0
    1.2152   -0.6946    0.0381 C   0  0  0  0  0  0  0  0  0  0  0  0
    2.3257   -1.3149   -0.5116 C   0  0  0  0  0  0  0  0  0  0  0  0
    3.4680   -0.8074    0.1550 C   0  0  0  0  0  0  0  0  0  0  0  0
    2.9998    0.1039    1.0719 C   0  0  0  0  0  0  0  0  0  0  0  0
    1.6444    0.1783    1.0039 O   0  0  0  0  0  0  0  0  0  0  0  0
    3.6508    0.9824    2.0630 C   0  0  0  0  0  0  0  0  0  0  0  0
   -1.0553   -4.0944   -0.3937 H   0  0  0  0  0  0  0  0  0  0  0  0
    0.4132   -3.4420    0.3714 H   0  0  0  0  0  0  0  0  0  0  0  0
    0.3023   -3.5497   -1.4242 H   0  0  0  0  0  0  0  0  0  0  0  0
   -0.1299    1.9787    0.1011 H   0  0  0  0  0  0  0  0  0  0  0  0
   -3.2923    4.0934   -0.3431 H   0  0  0  0  0  0  0  0  0  0  0  0
   -4.3987    2.0716   -0.8720 H   0  0  0  0  0  0  0  0  0  0  0  0
   -4.5042   -0.4139   -1.2261 H   0  0  0  0  0  0  0  0  0  0  0  0
    2.3203   -2.0360   -1.3164 H   0  0  0  0  0  0  0  0  0  0  0  0
    4.5034   -1.0642   -0.0206 H   0  0  0  0  0  0  0  0  0  0  0  0
    3.2976    0.7489    3.0720 H   0  0  0  0  0  0  0  0  0  0  0  0
    4.7378    0.8572    2.0447 H   0  0  0  0  0  0  0  0  0  0  0  0
    3.4247    2.0319    1.8512 H   0  0  0  0  0  0  0  0  0  0  0  0
  1  2  1  0
  2  3  1  0
  3  4  2  0
  4  5  1  0
  5  6  1  0
  6  7  2  0
  7  8  1  0
  8  9  2  0
  7 10  1  0
 10 11  2  0
  5 12  2  0
 12 13  1  0
 13 14  2  0
 14 15  1  0
 15 16  2  0
 16 17  1  0
 16 18  1  0
 12  2  1  0
 11  4  1  0
 17 13  1  0
  1 19  1  0
  1 20  1  0
  1 21  1  0
  6 22  1  0
  8 23  1  0
 10 24  1  0
 11 25  1  0
 14 26  1  0
 15 27  1  0
 18 28  1  0
 18 29  1  0
 18 30  1  0
M  END
