
     RDKit          3D

 31 33  0  0  0  0  0  0  0  0999 V2000
   -0.2750   -2.8625    1.1538 C   0  0  0  0  0  0  0  0  0  0  0  0
   -0.9235   -1.5981    0.8828 N   0  0  0  0  0  0  0  0  0  0  0  0
   -2.2235   -1.4609    1.2249 N   0  0  0  0  0  0  0  0  0  0  0  0
   -2.5493   -0.2155    0.8560 C   0  0  0  0  0  0  0  0  0  0  0  0
   -1.4007    0.4240    0.2527 C   0  0  0  0  0  0  0  0  0  0  0  0
   -1.3469    1.7351   -0.2283 C   0  0  0  0  0  0  0  0  0  0  0  0
   -2.5885    2.3926   -0.0764 C   0  0  0  0  0  0  0  0  0  0  0  0
   -2.6789    3.7947   -0.5441 C   0  0  0  0  0  0  0  0  0  0  0  0
   -3.7139    4.4444   -0.4691 O   0  0  0  0  0  0  0  0  0  0  0  0
   -3.7504    1.7878    0.5014 C   0  0  0  0  0  0  0  0  0  0  0  0
   -3.7720    0.4636    0.9903 C   0  0  0  0  0  0  0  0  0  0  0  0
   -0.3742   -0.4940    0.2683 C   0  0  0  0  0  0  0  0  0  0  0  0
    0.9772   -0.4401   -0.2013 C   0  0  0  0  0  0  0  0  0  0  0  0
    1.4904    0.1797   -1.3288 C   0  0  0  0  0  0  0  0  0  0  0  0
    2.8855   -0.0615   -1.3491 C   0  0  0  0  0  0  0  0  0  0  0  0
    3.1571   -0.8255   -0.2381 C   0  0  0  0  0  0  0  0  0  0  0  0
    2.0082   -1.0628    0.4553 O   0  0  0  0  0  0  0  0  0  0  0  0
    4.3964   -1.4015    0.3289 C   0  0  0  0  0  0  0  0  0  0  0  0
    4.6884   -0.6946    1.5270 O   0  0  0  0  0  0  0  0  0  0  0  0
    0.2308   -3.2034    0.2473 H   0  0  0  0  0  0  0  0  0  0  0  0
    0.4357   -2.7148    1.9705 H   0  0  0  0  0  0  0  0  0  0  0  0
   -1.0265   -3.6009    1.4465 H   0  0  0  0  0  0  0  0  0  0  0  0
   -0.4718    2.2074   -0.6505 H   0  0  0  0  0  0  0  0  0  0  0  0
   -1.7601    4.2318   -0.9700 H   0  0  0  0  0  0  0  0  0  0  0  0
   -4.6663    2.3769    0.5765 H   0  0  0  0  0  0  0  0  0  0  0  0
   -4.6473    0.0101    1.4348 H   0  0  0  0  0  0  0  0  0  0  0  0
    0.9227    0.7339   -2.0630 H   0  0  0  0  0  0  0  0  0  0  0  0
    3.6040    0.2796   -2.0818 H   0  0  0  0  0  0  0  0  0  0  0  0
    5.2417   -1.2906   -0.3559 H   0  0  0  0  0  0  0  0  0  0  0  0
    4.2702   -2.4625    0.5639 H   0  0  0  0  0  0  0  0  0  0  0  0
    3.8602   -0.6725    2.0395 H   0  0  0  0  0  0  0  0  0  0  0  0
  1  2  1  0
  2  3  1  0
  3  4  2  0
  4  5  1  0
  5  6  1  0
  6  7  2  0
  7  8  1  0
  8  9  2  0
  7 10  1  0
 10 11  2  0
  5 12  2  0
 12 13  1  0
 13 14  2  0
 14 15  1  0
 15 16  2  0
 16 17  1  0
 16 18  1  0
 18 19  1  0
 12  2  1  0
 11  4  1  0
 17 13  1  0
  1 20  1  0
  1 21  1  0
  1 22  1  0
  6 23  1  0
  8 24  1  0
 10 25  1  0
 11 26  1  0
 14 27  1  0
 15 28  1  0
 18 29  1  0
 18 30  1  0
 19 31  1  0
M  END
