
     RDKit          3D

 39 44  0  0  0  0  0  0  0  0999 V2000
   -4.4168   -0.7329    2.5668 Si  0  0  0  0  0  4  0  0  0  0  0  0
   -5.9482   -0.0717    1.7165 C   0  0  0  0  0  0  0  0  0  0  0  0
   -5.6858    0.5390    0.5478 C   0  0  0  0  0  0  0  0  0  0  0  0
   -4.2628    0.5424    0.2126 C   0  0  0  0  0  0  0  0  0  0  0  0
   -3.3491   -0.0704    1.1149 C   0  0  0  0  0  0  0  0  0  0  0  0
   -1.9215   -0.1481    0.9225 C   0  0  0  0  0  0  0  0  0  0  0  0
   -1.0924   -0.7395    1.8754 C   0  0  0  0  0  0  0  0  0  0  0  0
    0.2498   -0.8734    1.7927 N   0  0  0  0  0  0  0  0  0  0  0  0
    0.8675   -0.4469    0.6905 C   0  0  0  0  0  0  0  0  0  0  0  0
    2.2364   -0.6482    0.6382 C   0  0  0  0  0  0  0  0  0  0  0  0
    2.9652   -0.2826   -0.4828 C   0  0  0  0  0  0  0  0  0  0  0  0
    2.3482    0.2707   -1.5448 N   0  0  0  0  0  0  0  0  0  0  0  0
    1.0075    0.4616   -1.4745 C   0  0  0  0  0  0  0  0  0  0  0  0
    0.1882    0.1613   -0.3765 C   0  0  0  0  0  0  0  0  0  0  0  0
   -1.2516    0.3714   -0.2424 C   0  0  0  0  0  0  0  0  0  0  0  0
   -2.1968    1.0474   -1.1170 C   0  0  0  0  0  0  0  0  0  0  0  0
   -1.8740    1.7916   -2.2302 C   0  0  0  0  0  0  0  0  0  0  0  0
   -3.2481    2.4330   -3.0407 S   0  0  0  0  0  0  0  0  0  0  0  0
   -4.3146    1.7960   -1.8676 C   0  0  0  0  0  0  0  0  0  0  0  0
   -3.6361    1.1091   -0.8889 C   0  0  0  0  0  0  0  0  0  0  0  0
    4.4221   -0.4679   -0.6083 C   0  0  0  0  0  0  0  0  0  0  0  0
    5.1443   -1.4314    0.1131 C   0  0  0  0  0  0  0  0  0  0  0  0
    6.5258   -1.5549   -0.0458 C   0  0  0  0  0  0  0  0  0  0  0  0
    7.1650   -0.7076   -0.9319 C   0  0  0  0  0  0  0  0  0  0  0  0
    6.5242    0.2302   -1.6550 N   0  0  0  0  0  0  0  0  0  0  0  0
    5.1795    0.3204   -1.4797 C   0  0  0  0  0  0  0  0  0  0  0  0
   -4.1060   -0.0274    3.8336 H   0  0  0  0  0  0  0  0  0  0  0  0
   -4.3843   -2.2141    2.6320 H   0  0  0  0  0  0  0  0  0  0  0  0
   -6.9234   -0.1937    2.1633 H   0  0  0  0  0  0  0  0  0  0  0  0
   -6.4404    0.9839   -0.0852 H   0  0  0  0  0  0  0  0  0  0  0  0
   -1.4854   -1.1493    2.8024 H   0  0  0  0  0  0  0  0  0  0  0  0
    2.7220   -1.0929    1.5006 H   0  0  0  0  0  0  0  0  0  0  0  0
    0.6122    0.8473   -2.4032 H   0  0  0  0  0  0  0  0  0  0  0  0
   -0.9212    2.0517   -2.6550 H   0  0  0  0  0  0  0  0  0  0  0  0
   -5.3749    1.9838   -1.9612 H   0  0  0  0  0  0  0  0  0  0  0  0
    4.6442   -2.1125    0.7965 H   0  0  0  0  0  0  0  0  0  0  0  0
    7.0869   -2.2999    0.5074 H   0  0  0  0  0  0  0  0  0  0  0  0
    8.2378   -0.7646   -1.0905 H   0  0  0  0  0  0  0  0  0  0  0  0
    4.7065    1.0891   -2.0882 H   0  0  0  0  0  0  0  0  0  0  0  0
  1  2  1  0
  2  3  2  0
  3  4  1  0
  4  5  2  0
  5  6  1  0
  6  7  2  0
  7  8  1  0
  8  9  2  0
  9 10  1  0
 10 11  2  0
 11 12  1  0
 12 13  2  0
 13 14  1  0
 14 15  2  0
 15 16  1  0
 16 17  2  0
 17 18  1  0
 18 19  1  0
 19 20  2  0
 11 21  1  0
 21 22  2  0
 22 23  1  0
 23 24  2  0
 24 25  1  0
 25 26  2  0
  5  1  1  0
 15  6  1  0
 20 16  1  0
 26 21  1  0
 20  4  1  0
 14  9  1  0
  1 27  1  0
  1 28  1  0
  2 29  1  0
  3 30  1  0
  7 31  1  0
 10 32  1  0
 13 33  1  0
 17 34  1  0
 19 35  1  0
 22 36  1  0
 23 37  1  0
 24 38  1  0
 26 39  1  0
M  END
