
     RDKit          3D

 42 44  0  0  0  0  0  0  0  0999 V2000
    0.7419    2.5062   -2.5599 C   0  0  0  0  0  0  0  0  0  0  0  0
   -0.4108    1.9744   -1.8657 N   0  0  0  0  0  0  0  0  0  0  0  0
   -1.6296    2.4580   -2.1947 N   0  0  0  0  0  0  0  0  0  0  0  0
   -2.4869    1.7822   -1.4184 C   0  0  0  0  0  0  0  0  0  0  0  0
   -1.7594    0.8765   -0.5673 C   0  0  0  0  0  0  0  0  0  0  0  0
   -2.3314   -0.0085    0.3535 C   0  0  0  0  0  0  0  0  0  0  0  0
   -3.7501    0.0648    0.4232 C   0  0  0  0  0  0  0  0  0  0  0  0
   -4.4160   -0.8019    1.3234 N   0  0  0  0  0  0  0  0  0  0  0  0
   -5.8541   -1.0064    1.1559 C   0  0  0  0  0  0  0  0  0  0  0  0
   -3.9824   -0.6492    2.7173 C   0  0  0  0  0  0  0  0  0  0  0  0
   -4.4749    0.9742   -0.4252 C   0  0  0  0  0  0  0  0  0  0  0  0
   -3.8848    1.8566   -1.3632 C   0  0  0  0  0  0  0  0  0  0  0  0
   -0.4207    1.0336   -0.8567 C   0  0  0  0  0  0  0  0  0  0  0  0
    0.7663    0.4329   -0.3216 C   0  0  0  0  0  0  0  0  0  0  0  0
    1.0102   -0.0631    0.9478 C   0  0  0  0  0  0  0  0  0  0  0  0
    2.3429   -0.5426    0.9687 C   0  0  0  0  0  0  0  0  0  0  0  0
    2.8663   -0.3088   -0.2871 C   0  0  0  0  0  0  0  0  0  0  0  0
    1.9108    0.2876   -1.0620 O   0  0  0  0  0  0  0  0  0  0  0  0
    4.1605   -0.5636   -0.8734 C   0  0  0  0  0  0  0  0  0  0  0  0
    4.9626   -1.1880    0.0400 O   0  0  0  0  0  0  0  0  0  0  0  0
    6.2772   -1.4875   -0.4432 C   0  0  0  0  0  0  0  0  0  0  0  0
    7.0439   -2.1757    0.6689 C   0  0  0  0  0  0  0  0  0  0  0  0
    4.5083   -0.2687   -2.0106 O   0  0  0  0  0  0  0  0  0  0  0  0
    1.1659    1.7134   -3.1811 H   0  0  0  0  0  0  0  0  0  0  0  0
    0.4311    3.3418   -3.1940 H   0  0  0  0  0  0  0  0  0  0  0  0
    1.4647    2.8633   -1.8219 H   0  0  0  0  0  0  0  0  0  0  0  0
   -1.7692   -0.7269    0.9312 H   0  0  0  0  0  0  0  0  0  0  0  0
   -6.1022   -1.2631    0.1197 H   0  0  0  0  0  0  0  0  0  0  0  0
   -6.4249   -0.1228    1.4642 H   0  0  0  0  0  0  0  0  0  0  0  0
   -6.1859   -1.8495    1.7727 H   0  0  0  0  0  0  0  0  0  0  0  0
   -4.1507    0.3761    3.0731 H   0  0  0  0  0  0  0  0  0  0  0  0
   -4.5472   -1.3280    3.3678 H   0  0  0  0  0  0  0  0  0  0  0  0
   -2.9243   -0.9056    2.8506 H   0  0  0  0  0  0  0  0  0  0  0  0
   -5.5600    1.0198   -0.3580 H   0  0  0  0  0  0  0  0  0  0  0  0
   -4.4592    2.5264   -1.9874 H   0  0  0  0  0  0  0  0  0  0  0  0
    0.3128   -0.0681    1.7736 H   0  0  0  0  0  0  0  0  0  0  0  0
    2.8653   -0.9966    1.7998 H   0  0  0  0  0  0  0  0  0  0  0  0
    6.7884   -0.5603   -0.7247 H   0  0  0  0  0  0  0  0  0  0  0  0
    6.2104   -2.1520   -1.3120 H   0  0  0  0  0  0  0  0  0  0  0  0
    6.5321   -3.0918    0.9806 H   0  0  0  0  0  0  0  0  0  0  0  0
    7.1056   -1.5299    1.5508 H   0  0  0  0  0  0  0  0  0  0  0  0
    8.0574   -2.4290    0.3455 H   0  0  0  0  0  0  0  0  0  0  0  0
  1  2  1  0
  2  3  1  0
  3  4  2  0
  4  5  1  0
  5  6  1  0
  6  7  2  0
  7  8  1  0
  8  9  1  0
  8 10  1  0
  7 11  1  0
 11 12  2  0
  5 13  2  0
 13 14  1  0
 14 15  2  0
 15 16  1  0
 16 17  2  0
 17 18  1  0
 17 19  1  0
 19 20  1  0
 20 21  1  0
 21 22  1  0
 19 23  2  0
 13  2  1  0
 12  4  1  0
 18 14  1  0
  1 24  1  0
  1 25  1  0
  1 26  1  0
  6 27  1  0
  9 28  1  0
  9 29  1  0
  9 30  1  0
 10 31  1  0
 10 32  1  0
 10 33  1  0
 11 34  1  0
 12 35  1  0
 15 36  1  0
 16 37  1  0
 21 38  1  0
 21 39  1  0
 22 40  1  0
 22 41  1  0
 22 42  1  0
M  END
