
     RDKit          3D

 34 36  0  0  0  0  0  0  0  0999 V2000
    1.0193   -3.5178    0.7383 C   0  0  0  0  0  0  0  0  0  0  0  0
   -0.0260   -2.5405    0.5335 N   0  0  0  0  0  0  0  0  0  0  0  0
   -1.2946   -2.9033    0.8300 N   0  0  0  0  0  0  0  0  0  0  0  0
   -2.0197   -1.7894    0.6532 C   0  0  0  0  0  0  0  0  0  0  0  0
   -1.1607   -0.7235    0.2051 C   0  0  0  0  0  0  0  0  0  0  0  0
   -1.5578    0.5804   -0.0948 C   0  0  0  0  0  0  0  0  0  0  0  0
   -2.9437    0.7781    0.0974 C   0  0  0  0  0  0  0  0  0  0  0  0
   -3.3455    2.0614   -0.1975 O   0  0  0  0  0  0  0  0  0  0  0  0
   -4.7059    2.3922    0.0451 C   0  0  0  0  0  0  0  0  0  0  0  0
   -3.8225   -0.2596    0.5429 C   0  0  0  0  0  0  0  0  0  0  0  0
   -3.3951   -1.5770    0.8362 C   0  0  0  0  0  0  0  0  0  0  0  0
    0.1106   -1.2407    0.1017 C   0  0  0  0  0  0  0  0  0  0  0  0
    1.3338   -0.6268   -0.3184 C   0  0  0  0  0  0  0  0  0  0  0  0
    2.3507   -1.1375   -1.1067 C   0  0  0  0  0  0  0  0  0  0  0  0
    3.3304   -0.1225   -1.2418 C   0  0  0  0  0  0  0  0  0  0  0  0
    2.8666    0.9701   -0.5363 C   0  0  0  0  0  0  0  0  0  0  0  0
    1.6564    0.6606    0.0170 O   0  0  0  0  0  0  0  0  0  0  0  0
    3.4058    2.2963   -0.3058 C   0  0  0  0  0  0  0  0  0  0  0  0
    4.7366    2.5991   -0.9514 C   0  0  0  0  0  0  0  0  0  0  0  0
    2.8452    3.1577    0.3719 O   0  0  0  0  0  0  0  0  0  0  0  0
    0.6638   -4.2874    1.4293 H   0  0  0  0  0  0  0  0  0  0  0  0
    1.8929   -3.0263    1.1727 H   0  0  0  0  0  0  0  0  0  0  0  0
    1.2601   -3.9675   -0.2276 H   0  0  0  0  0  0  0  0  0  0  0  0
   -0.8995    1.3703   -0.4317 H   0  0  0  0  0  0  0  0  0  0  0  0
   -5.3728    1.8152   -0.6038 H   0  0  0  0  0  0  0  0  0  0  0  0
   -4.9645    2.2588    1.1008 H   0  0  0  0  0  0  0  0  0  0  0  0
   -4.8408    3.4505   -0.1982 H   0  0  0  0  0  0  0  0  0  0  0  0
   -4.8838   -0.0609    0.6710 H   0  0  0  0  0  0  0  0  0  0  0  0
   -4.0655   -2.3562    1.1705 H   0  0  0  0  0  0  0  0  0  0  0  0
    2.3770   -2.1216   -1.5536 H   0  0  0  0  0  0  0  0  0  0  0  0
    4.2556   -0.1838   -1.7981 H   0  0  0  0  0  0  0  0  0  0  0  0
    4.6558    2.5107   -2.0383 H   0  0  0  0  0  0  0  0  0  0  0  0
    5.5023    1.9174   -0.5710 H   0  0  0  0  0  0  0  0  0  0  0  0
    5.0356    3.6236   -0.7098 H   0  0  0  0  0  0  0  0  0  0  0  0
  1  2  1  0
  2  3  1  0
  3  4  2  0
  4  5  1  0
  5  6  1  0
  6  7  2  0
  7  8  1  0
  8  9  1  0
  7 10  1  0
 10 11  2  0
  5 12  2  0
 12 13  1  0
 13 14  2  0
 14 15  1  0
 15 16  2  0
 16 17  1  0
 16 18  1  0
 18 19  1  0
 18 20  2  0
 12  2  1  0
 11  4  1  0
 17 13  1  0
  1 21  1  0
  1 22  1  0
  1 23  1  0
  6 24  1  0
  9 25  1  0
  9 26  1  0
  9 27  1  0
 10 28  1  0
 11 29  1  0
 14 30  1  0
 15 31  1  0
 19 32  1  0
 19 33  1  0
 19 34  1  0
M  END
