
     RDKit          3D

 31 36  0  0  0  0  0  0  0  0999 V2000
    1.1245   -2.0276    1.2201 S   0  0  0  0  0  0  0  0  0  0  0  0
    2.7068   -1.4081    0.8909 C   0  0  0  0  0  0  0  0  0  0  0  0
    4.0627   -1.7674    1.1333 C   0  0  0  0  0  0  0  0  0  0  0  0
    4.8140   -0.7675    0.5611 C   0  0  0  0  0  0  0  0  0  0  0  0
    3.9821    0.1623   -0.0055 N   0  0  0  0  0  0  0  0  0  0  0  0
    2.6788   -0.2316    0.1970 C   0  0  0  0  0  0  0  0  0  0  0  0
    1.3518    0.1555   -0.0610 C   0  0  0  0  0  0  0  0  0  0  0  0
    0.3507   -0.6840    0.4109 C   0  0  0  0  0  0  0  0  0  0  0  0
   -1.0330   -0.3754    0.1978 C   0  0  0  0  0  0  0  0  0  0  0  0
   -2.1633   -1.1298    0.6167 C   0  0  0  0  0  0  0  0  0  0  0  0
   -2.1532   -2.3168    1.3163 C   0  0  0  0  0  0  0  0  0  0  0  0
   -3.7284   -2.9285    1.6411 S   0  0  0  0  0  0  0  0  0  0  0  0
   -4.4731   -1.6106    0.8478 C   0  0  0  0  0  0  0  0  0  0  0  0
   -3.5379   -0.7346    0.3528 C   0  0  0  0  0  0  0  0  0  0  0  0
   -3.9390    0.4077   -0.3294 C   0  0  0  0  0  0  0  0  0  0  0  0
   -2.8436    1.1749   -0.7565 C   0  0  0  0  0  0  0  0  0  0  0  0
   -1.4551    0.8234   -0.5180 C   0  0  0  0  0  0  0  0  0  0  0  0
   -0.3571    1.6140   -0.9590 C   0  0  0  0  0  0  0  0  0  0  0  0
   -0.5061    2.7966   -1.6592 C   0  0  0  0  0  0  0  0  0  0  0  0
    0.9961    3.5354   -2.0604 S   0  0  0  0  0  0  0  0  0  0  0  0
    1.8881    2.2789   -1.3000 C   0  0  0  0  0  0  0  0  0  0  0  0
    1.0299    1.3547   -0.7749 C   0  0  0  0  0  0  0  0  0  0  0  0
    4.4291   -2.6403    1.6559 H   0  0  0  0  0  0  0  0  0  0  0  0
    5.8876   -0.6383    0.5092 H   0  0  0  0  0  0  0  0  0  0  0  0
    4.2619    1.0007   -0.4932 H   0  0  0  0  0  0  0  0  0  0  0  0
   -1.3323   -2.9080    1.6832 H   0  0  0  0  0  0  0  0  0  0  0  0
   -5.5516   -1.5552    0.7907 H   0  0  0  0  0  0  0  0  0  0  0  0
   -4.9643    0.6958   -0.5222 H   0  0  0  0  0  0  0  0  0  0  0  0
   -3.0810    2.0878   -1.2998 H   0  0  0  0  0  0  0  0  0  0  0  0
   -1.4074    3.2999   -1.9761 H   0  0  0  0  0  0  0  0  0  0  0  0
    2.9623    2.3362   -1.3094 H   0  0  0  0  0  0  0  0  0  0  0  0
  1  2  1  0
  2  3  1  0
  3  4  2  0
  4  5  1  0
  5  6  1  0
  6  7  1  0
  7  8  2  0
  8  9  1  0
  9 10  1  0
 10 11  2  0
 11 12  1  0
 12 13  1  0
 13 14  2  0
 14 15  1  0
 15 16  2  0
 16 17  1  0
 17 18  1  0
 18 19  2  0
 19 20  1  0
 20 21  1  0
 21 22  2  0
  8  1  1  0
 17  9  2  0
 22 18  1  0
  6  2  2  0
 22  7  1  0
 14 10  1  0
  3 23  1  0
  4 24  1  0
  5 25  1  0
 11 26  1  0
 13 27  1  0
 15 28  1  0
 16 29  1  0
 19 30  1  0
 21 31  1  0
M  END
