
     RDKit          3D

 33 35  0  0  0  0  0  0  0  0999 V2000
    1.1823   -3.1307   -0.3387 C   0  0  0  0  0  0  0  0  0  0  0  0
    0.0802   -2.2123   -0.1505 N   0  0  0  0  0  0  0  0  0  0  0  0
   -1.1654   -2.7268   -0.0356 N   0  0  0  0  0  0  0  0  0  0  0  0
   -1.9619   -1.6627    0.1289 C   0  0  0  0  0  0  0  0  0  0  0  0
   -1.1713   -0.4562    0.0952 C   0  0  0  0  0  0  0  0  0  0  0  0
   -1.6613    0.8414    0.2605 C   0  0  0  0  0  0  0  0  0  0  0  0
   -3.0616    0.8742    0.4514 C   0  0  0  0  0  0  0  0  0  0  0  0
   -3.5462    2.1533    0.6103 O   0  0  0  0  0  0  0  0  0  0  0  0
   -4.9414    2.2982    0.8409 C   0  0  0  0  0  0  0  0  0  0  0  0
   -3.8706   -0.3039    0.4744 C   0  0  0  0  0  0  0  0  0  0  0  0
   -3.3522   -1.6108    0.3174 C   0  0  0  0  0  0  0  0  0  0  0  0
    0.1379   -0.8351   -0.1073 C   0  0  0  0  0  0  0  0  0  0  0  0
    1.3533   -0.0891   -0.2525 C   0  0  0  0  0  0  0  0  0  0  0  0
    1.5545    1.1767   -0.7791 C   0  0  0  0  0  0  0  0  0  0  0  0
    2.9424    1.4536   -0.7025 C   0  0  0  0  0  0  0  0  0  0  0  0
    3.5218    0.3393   -0.1428 C   0  0  0  0  0  0  0  0  0  0  0  0
    4.7482   -0.0492    0.1893 O   0  0  0  0  0  0  0  0  0  0  0  0
    5.7734    0.9026   -0.0556 C   0  0  0  0  0  0  0  0  0  0  0  0
    2.5724   -0.5930    0.1239 O   0  0  0  0  0  0  0  0  0  0  0  0
    1.7941   -3.1238    0.5664 H   0  0  0  0  0  0  0  0  0  0  0  0
    0.7907   -4.1374   -0.5098 H   0  0  0  0  0  0  0  0  0  0  0  0
    1.7599   -2.8168   -1.2114 H   0  0  0  0  0  0  0  0  0  0  0  0
   -1.0667    1.7433    0.2659 H   0  0  0  0  0  0  0  0  0  0  0  0
   -5.1511    3.3658    0.9582 H   0  0  0  0  0  0  0  0  0  0  0  0
   -5.5220    1.9382   -0.0148 H   0  0  0  0  0  0  0  0  0  0  0  0
   -5.2435    1.7970    1.7664 H   0  0  0  0  0  0  0  0  0  0  0  0
   -4.9452   -0.2300    0.6228 H   0  0  0  0  0  0  0  0  0  0  0  0
   -3.9679   -2.4991    0.3437 H   0  0  0  0  0  0  0  0  0  0  0  0
    0.7916    1.8240   -1.1879 H   0  0  0  0  0  0  0  0  0  0  0  0
    3.4479    2.3515   -1.0253 H   0  0  0  0  0  0  0  0  0  0  0  0
    5.6066    1.8168    0.5244 H   0  0  0  0  0  0  0  0  0  0  0  0
    5.8461    1.1342   -1.1238 H   0  0  0  0  0  0  0  0  0  0  0  0
    6.7251    0.4671    0.2629 H   0  0  0  0  0  0  0  0  0  0  0  0
  1  2  1  0
  2  3  1  0
  3  4  2  0
  4  5  1  0
  5  6  1  0
  6  7  2  0
  7  8  1  0
  8  9  1  0
  7 10  1  0
 10 11  2  0
  5 12  2  0
 12 13  1  0
 13 14  2  0
 14 15  1  0
 15 16  2  0
 16 17  1  0
 17 18  1  0
 16 19  1  0
 12  2  1  0
 11  4  1  0
 19 13  1  0
  1 20  1  0
  1 21  1  0
  1 22  1  0
  6 23  1  0
  9 24  1  0
  9 25  1  0
  9 26  1  0
 10 27  1  0
 11 28  1  0
 14 29  1  0
 15 30  1  0
 18 31  1  0
 18 32  1  0
 18 33  1  0
M  END
