
     RDKit          3D

 32 34  0  0  0  0  0  0  0  0999 V2000
   -1.9988   -2.6418   -1.1881 C   0  0  0  0  0  0  0  0  0  0  0  0
   -0.7466   -2.0217   -0.8165 N   0  0  0  0  0  0  0  0  0  0  0  0
    0.3882   -2.7471   -0.9485 N   0  0  0  0  0  0  0  0  0  0  0  0
    1.3729   -1.9140   -0.5821 C   0  0  0  0  0  0  0  0  0  0  0  0
    0.8127   -0.6398   -0.2125 C   0  0  0  0  0  0  0  0  0  0  0  0
    1.5237    0.4755    0.2311 C   0  0  0  0  0  0  0  0  0  0  0  0
    2.9156    0.2385    0.2812 C   0  0  0  0  0  0  0  0  0  0  0  0
    3.6269    1.3349    0.7145 O   0  0  0  0  0  0  0  0  0  0  0  0
    5.0363    1.1937    0.8321 C   0  0  0  0  0  0  0  0  0  0  0  0
    3.5049   -1.0135   -0.0843 C   0  0  0  0  0  0  0  0  0  0  0  0
    2.7584   -2.1327   -0.5263 C   0  0  0  0  0  0  0  0  0  0  0  0
   -0.5513   -0.7362   -0.3628 C   0  0  0  0  0  0  0  0  0  0  0  0
   -1.5887    0.2293   -0.1477 C   0  0  0  0  0  0  0  0  0  0  0  0
   -1.7267    1.4471   -0.7812 C   0  0  0  0  0  0  0  0  0  0  0  0
   -2.8641    2.1722   -0.3197 C   0  0  0  0  0  0  0  0  0  0  0  0
   -3.5538    1.4900    0.6604 C   0  0  0  0  0  0  0  0  0  0  0  0
   -2.8209   -0.0153    1.0134 S   0  0  0  0  0  0  0  0  0  0  0  0
   -4.7811    1.9083    1.3941 C   0  0  0  0  0  0  0  0  0  0  0  0
   -2.4782   -3.0135   -0.2796 H   0  0  0  0  0  0  0  0  0  0  0  0
   -1.7996   -3.4720   -1.8715 H   0  0  0  0  0  0  0  0  0  0  0  0
   -2.6309   -1.9084   -1.6940 H   0  0  0  0  0  0  0  0  0  0  0  0
    1.0849    1.4215    0.5175 H   0  0  0  0  0  0  0  0  0  0  0  0
    5.2968    0.4195    1.5612 H   0  0  0  0  0  0  0  0  0  0  0  0
    5.4952    0.9942   -0.1417 H   0  0  0  0  0  0  0  0  0  0  0  0
    5.4373    2.1434    1.1993 H   0  0  0  0  0  0  0  0  0  0  0  0
    4.5825   -1.1488   -0.0304 H   0  0  0  0  0  0  0  0  0  0  0  0
    3.2101   -3.0764   -0.7978 H   0  0  0  0  0  0  0  0  0  0  0  0
   -1.0449    1.8037   -1.5443 H   0  0  0  0  0  0  0  0  0  0  0  0
   -3.1550    3.1488   -0.6881 H   0  0  0  0  0  0  0  0  0  0  0  0
   -5.1270    2.8888    1.0504 H   0  0  0  0  0  0  0  0  0  0  0  0
   -4.5855    1.9803    2.4691 H   0  0  0  0  0  0  0  0  0  0  0  0
   -5.5933    1.1917    1.2332 H   0  0  0  0  0  0  0  0  0  0  0  0
  1  2  1  0
  2  3  1  0
  3  4  2  0
  4  5  1  0
  5  6  1  0
  6  7  2  0
  7  8  1  0
  8  9  1  0
  7 10  1  0
 10 11  2  0
  5 12  2  0
 12 13  1  0
 13 14  2  0
 14 15  1  0
 15 16  2  0
 16 17  1  0
 16 18  1  0
 12  2  1  0
 11  4  1  0
 17 13  1  0
  1 19  1  0
  1 20  1  0
  1 21  1  0
  6 22  1  0
  9 23  1  0
  9 24  1  0
  9 25  1  0
 10 26  1  0
 11 27  1  0
 14 28  1  0
 15 29  1  0
 18 30  1  0
 18 31  1  0
 18 32  1  0
M  END
