
     RDKit          3D

 31 33  0  0  0  0  0  0  0  0999 V2000
    1.1671   -1.4582   -3.0311 C   0  0  0  0  0  0  0  0  0  0  0  0
    0.2027   -1.0638   -2.0284 N   0  0  0  0  0  0  0  0  0  0  0  0
   -1.0916   -1.4067   -2.2224 N   0  0  0  0  0  0  0  0  0  0  0  0
   -1.7343   -0.9566   -1.1356 C   0  0  0  0  0  0  0  0  0  0  0  0
   -0.7936   -0.3203   -0.2501 C   0  0  0  0  0  0  0  0  0  0  0  0
   -1.0914    0.2764    0.9755 C   0  0  0  0  0  0  0  0  0  0  0  0
   -2.4652    0.1905    1.2946 C   0  0  0  0  0  0  0  0  0  0  0  0
   -2.7675    0.7732    2.5049 O   0  0  0  0  0  0  0  0  0  0  0  0
   -4.1347    0.7967    2.8940 C   0  0  0  0  0  0  0  0  0  0  0  0
   -3.4238   -0.4412    0.4405 C   0  0  0  0  0  0  0  0  0  0  0  0
   -3.0958   -1.0339   -0.8028 C   0  0  0  0  0  0  0  0  0  0  0  0
    0.4441   -0.3963   -0.8472 C   0  0  0  0  0  0  0  0  0  0  0  0
    1.7280    0.0613   -0.4012 C   0  0  0  0  0  0  0  0  0  0  0  0
    2.3673   -0.2903    0.7705 C   0  0  0  0  0  0  0  0  0  0  0  0
    3.6262    0.3642    0.9197 C   0  0  0  0  0  0  0  0  0  0  0  0
    3.9053    1.1997   -0.1427 C   0  0  0  0  0  0  0  0  0  0  0  0
    2.6463    1.1929   -1.2972 S   0  0  0  0  0  0  0  0  0  0  0  0
    5.0791    2.0209   -0.3442 C   0  0  0  0  0  0  0  0  0  0  0  0
    5.3133    2.7341   -1.3169 O   0  0  0  0  0  0  0  0  0  0  0  0
    1.3476   -0.6030   -3.6863 H   0  0  0  0  0  0  0  0  0  0  0  0
    2.0887   -1.7801   -2.5409 H   0  0  0  0  0  0  0  0  0  0  0  0
    0.7621   -2.2928   -3.6105 H   0  0  0  0  0  0  0  0  0  0  0  0
   -0.3764    0.7645    1.6232 H   0  0  0  0  0  0  0  0  0  0  0  0
   -4.1995    1.3173    3.8544 H   0  0  0  0  0  0  0  0  0  0  0  0
   -4.7421    1.3535    2.1728 H   0  0  0  0  0  0  0  0  0  0  0  0
   -4.5201   -0.2177    3.0400 H   0  0  0  0  0  0  0  0  0  0  0  0
   -4.4710   -0.4859    0.7298 H   0  0  0  0  0  0  0  0  0  0  0  0
   -3.8260   -1.5064   -1.4449 H   0  0  0  0  0  0  0  0  0  0  0  0
    1.9526   -0.9879    1.4896 H   0  0  0  0  0  0  0  0  0  0  0  0
    4.2860    0.2227    1.7677 H   0  0  0  0  0  0  0  0  0  0  0  0
    5.8167    1.9730    0.4760 H   0  0  0  0  0  0  0  0  0  0  0  0
  1  2  1  0
  2  3  1  0
  3  4  2  0
  4  5  1  0
  5  6  1  0
  6  7  2  0
  7  8  1  0
  8  9  1  0
  7 10  1  0
 10 11  2  0
  5 12  2  0
 12 13  1  0
 13 14  2  0
 14 15  1  0
 15 16  2  0
 16 17  1  0
 16 18  1  0
 18 19  2  0
 12  2  1  0
 11  4  1  0
 17 13  1  0
  1 20  1  0
  1 21  1  0
  1 22  1  0
  6 23  1  0
  9 24  1  0
  9 25  1  0
  9 26  1  0
 10 27  1  0
 11 28  1  0
 14 29  1  0
 15 30  1  0
 18 31  1  0
M  END
