
     RDKit          3D

 28 30  0  0  0  0  0  0  0  0999 V2000
   -0.2385    2.3630   -1.8006 C   0  0  0  0  0  0  0  0  0  0  0  0
   -0.9639    1.2570   -1.2173 N   0  0  0  0  0  0  0  0  0  0  0  0
   -2.2555    1.0708   -1.5713 N   0  0  0  0  0  0  0  0  0  0  0  0
   -2.6381   -0.0291   -0.9035 C   0  0  0  0  0  0  0  0  0  0  0  0
   -1.5372   -0.5156   -0.1061 C   0  0  0  0  0  0  0  0  0  0  0  0
   -1.5502   -1.6290    0.7335 C   0  0  0  0  0  0  0  0  0  0  0  0
   -2.8058   -2.2703    0.7199 C   0  0  0  0  0  0  0  0  0  0  0  0
   -3.9190   -1.8239   -0.0576 C   0  0  0  0  0  0  0  0  0  0  0  0
   -3.8788   -0.6885   -0.8964 C   0  0  0  0  0  0  0  0  0  0  0  0
   -0.4790    0.3348   -0.3193 C   0  0  0  0  0  0  0  0  0  0  0  0
    0.8489    0.3497    0.2127 C   0  0  0  0  0  0  0  0  0  0  0  0
    1.3635    1.2369    1.1342 C   0  0  0  0  0  0  0  0  0  0  0  0
    2.7310    0.9674    1.4350 C   0  0  0  0  0  0  0  0  0  0  0  0
    3.2152   -0.1170    0.7332 C   0  0  0  0  0  0  0  0  0  0  0  0
    4.5802   -0.7129    0.7696 C   0  0  0  0  0  0  0  0  0  0  0  0
    2.0150   -0.7985   -0.2794 S   0  0  0  0  0  0  0  0  0  0  0  0
    0.7273    2.0026   -2.1628 H   0  0  0  0  0  0  0  0  0  0  0  0
   -0.1063    3.1284   -1.0323 H   0  0  0  0  0  0  0  0  0  0  0  0
   -0.8102    2.7708   -2.6387 H   0  0  0  0  0  0  0  0  0  0  0  0
   -0.7166   -1.9760    1.3282 H   0  0  0  0  0  0  0  0  0  0  0  0
   -2.9374   -3.1589    1.3384 H   0  0  0  0  0  0  0  0  0  0  0  0
   -4.8486   -2.3902    0.0014 H   0  0  0  0  0  0  0  0  0  0  0  0
   -4.7225   -0.3514   -1.4815 H   0  0  0  0  0  0  0  0  0  0  0  0
    0.7872    2.0384    1.5810 H   0  0  0  0  0  0  0  0  0  0  0  0
    3.3261    1.5409    2.1358 H   0  0  0  0  0  0  0  0  0  0  0  0
    5.2281   -0.1639    1.4609 H   0  0  0  0  0  0  0  0  0  0  0  0
    4.5404   -1.7548    1.1041 H   0  0  0  0  0  0  0  0  0  0  0  0
    5.0448   -0.6807   -0.2214 H   0  0  0  0  0  0  0  0  0  0  0  0
  1  2  1  0
  2  3  1  0
  3  4  2  0
  4  5  1  0
  5  6  1  0
  6  7  2  0
  7  8  1  0
  8  9  2  0
  5 10  2  0
 10 11  1  0
 11 12  2  0
 12 13  1  0
 13 14  2  0
 14 15  1  0
 14 16  1  0
 10  2  1  0
  9  4  1  0
 16 11  1  0
  1 17  1  0
  1 18  1  0
  1 19  1  0
  6 20  1  0
  7 21  1  0
  8 22  1  0
  9 23  1  0
 12 24  1  0
 13 25  1  0
 15 26  1  0
 15 27  1  0
 15 28  1  0
M  END
