
     RDKit          3D

 32 37  0  0  0  0  0  0  0  0999 V2000
   -3.8194    2.0190    0.3797 Si  0  0  0  0  0  4  0  0  0  0  0  0
   -5.4341    1.0446    0.1283 C   0  0  0  0  0  0  0  0  0  0  0  0
   -5.2334   -0.2611   -0.1384 C   0  0  0  0  0  0  0  0  0  0  0  0
   -3.8121   -0.6140   -0.1699 C   0  0  0  0  0  0  0  0  0  0  0  0
   -2.9141    0.4509    0.0792 C   0  0  0  0  0  0  0  0  0  0  0  0
   -1.5494    0.2134    0.0701 C   0  0  0  0  0  0  0  0  0  0  0  0
   -0.5404    1.1124    0.2878 O   0  0  0  0  0  0  0  0  0  0  0  0
    0.6341    0.4193    0.1779 C   0  0  0  0  0  0  0  0  0  0  0  0
    1.9138    0.9409    0.3247 C   0  0  0  0  0  0  0  0  0  0  0  0
    2.9790    0.0395    0.1681 C   0  0  0  0  0  0  0  0  0  0  0  0
    2.6576   -1.2938   -0.1198 C   0  0  0  0  0  0  0  0  0  0  0  0
    1.4115   -1.8191   -0.2664 N   0  0  0  0  0  0  0  0  0  0  0  0
    0.4050   -0.9258   -0.1098 C   0  0  0  0  0  0  0  0  0  0  0  0
   -0.9843   -1.0249   -0.1717 C   0  0  0  0  0  0  0  0  0  0  0  0
   -1.8375   -2.1458   -0.4311 C   0  0  0  0  0  0  0  0  0  0  0  0
   -1.3927   -3.3675   -0.6730 N   0  0  0  0  0  0  0  0  0  0  0  0
   -2.8064   -4.2384   -0.8968 S   0  0  0  0  0  0  0  0  0  0  0  0
   -3.9557   -3.0371   -0.6801 N   0  0  0  0  0  0  0  0  0  0  0  0
   -3.2818   -1.8980   -0.4223 C   0  0  0  0  0  0  0  0  0  0  0  0
    4.3592    0.5376    0.3130 C   0  0  0  0  0  0  0  0  0  0  0  0
    4.6553    1.7966    0.5843 N   0  0  0  0  0  0  0  0  0  0  0  0
    6.0225    1.9691    0.6609 C   0  0  0  0  0  0  0  0  0  0  0  0
    6.7738    0.8372    0.4472 C   0  0  0  0  0  0  0  0  0  0  0  0
    5.7381   -0.4885    0.1400 S   0  0  0  0  0  0  0  0  0  0  0  0
   -3.7189    2.5184    1.7731 H   0  0  0  0  0  0  0  0  0  0  0  0
   -3.6457    3.0326   -0.6895 H   0  0  0  0  0  0  0  0  0  0  0  0
   -6.3868    1.5464    0.2048 H   0  0  0  0  0  0  0  0  0  0  0  0
   -6.0111   -0.9929   -0.3143 H   0  0  0  0  0  0  0  0  0  0  0  0
    2.0693    1.9906    0.5485 H   0  0  0  0  0  0  0  0  0  0  0  0
    3.4340   -2.0447   -0.2536 H   0  0  0  0  0  0  0  0  0  0  0  0
    6.4214    2.9527    0.8778 H   0  0  0  0  0  0  0  0  0  0  0  0
    7.8489    0.7303    0.4568 H   0  0  0  0  0  0  0  0  0  0  0  0
  1  2  1  0
  2  3  2  0
  3  4  1  0
  4  5  2  0
  5  6  1  0
  6  7  1  0
  7  8  1  0
  8  9  2  0
  9 10  1  0
 10 11  2  0
 11 12  1  0
 12 13  2  0
 13 14  1  0
 14 15  1  0
 15 16  2  0
 16 17  1  0
 17 18  1  0
 18 19  2  0
 10 20  1  0
 20 21  2  0
 21 22  1  0
 22 23  2  0
 23 24  1  0
  5  1  1  0
 14  6  2  0
 19 15  1  0
 24 20  1  0
 19  4  1  0
 13  8  1  0
  1 25  1  0
  1 26  1  0
  2 27  1  0
  3 28  1  0
  9 29  1  0
 11 30  1  0
 22 31  1  0
 23 32  1  0
M  END
