
     RDKit          3D

 31 33  0  0  0  0  0  0  0  0999 V2000
    0.4596   -0.0471   -2.5234 C   0  0  0  0  0  0  0  0  0  0  0  0
   -0.6491   -0.4858   -1.7048 N   0  0  0  0  0  0  0  0  0  0  0  0
   -1.6330   -1.1949   -2.3027 N   0  0  0  0  0  0  0  0  0  0  0  0
   -2.4954   -1.4850   -1.3202 C   0  0  0  0  0  0  0  0  0  0  0  0
   -2.0235   -0.9125   -0.0800 C   0  0  0  0  0  0  0  0  0  0  0  0
   -2.6486   -1.0349    1.1639 C   0  0  0  0  0  0  0  0  0  0  0  0
   -3.8422   -1.7824    1.0818 C   0  0  0  0  0  0  0  0  0  0  0  0
   -4.3437   -2.3481   -0.1285 C   0  0  0  0  0  0  0  0  0  0  0  0
   -3.6900   -2.2231   -1.3721 C   0  0  0  0  0  0  0  0  0  0  0  0
   -0.8446   -0.2539   -0.3597 C   0  0  0  0  0  0  0  0  0  0  0  0
    0.0459    0.5132    0.4620 C   0  0  0  0  0  0  0  0  0  0  0  0
   -0.2482    1.3120    1.5495 C   0  0  0  0  0  0  0  0  0  0  0  0
    0.9755    1.8308    2.0304 C   0  0  0  0  0  0  0  0  0  0  0  0
    1.9881    1.3581    1.2087 C   0  0  0  0  0  0  0  0  0  0  0  0
    1.3994    0.5658    0.2527 O   0  0  0  0  0  0  0  0  0  0  0  0
    3.3858    1.6034    1.3220 C   0  0  0  0  0  0  0  0  0  0  0  0
    4.2917    1.4011    0.3464 C   0  0  0  0  0  0  0  0  0  0  0  0
    3.9724    0.9503   -0.9648 C   0  0  0  0  0  0  0  0  0  0  0  0
    3.7463    0.6052   -2.0499 N   0  0  0  0  0  0  0  0  0  0  0  0
    5.6586    1.6901    0.6262 C   0  0  0  0  0  0  0  0  0  0  0  0
    6.7621    1.9375    0.8855 N   0  0  0  0  0  0  0  0  0  0  0  0
    1.3066   -0.7035   -2.3152 H   0  0  0  0  0  0  0  0  0  0  0  0
    0.1825   -0.1230   -3.5786 H   0  0  0  0  0  0  0  0  0  0  0  0
    0.6891    0.9947   -2.2896 H   0  0  0  0  0  0  0  0  0  0  0  0
   -2.2844   -0.6361    2.0993 H   0  0  0  0  0  0  0  0  0  0  0  0
   -4.4148   -1.9435    1.9961 H   0  0  0  0  0  0  0  0  0  0  0  0
   -5.2761   -2.9113   -0.0886 H   0  0  0  0  0  0  0  0  0  0  0  0
   -4.0651   -2.6593   -2.2872 H   0  0  0  0  0  0  0  0  0  0  0  0
   -1.2333    1.5039    1.9513 H   0  0  0  0  0  0  0  0  0  0  0  0
    1.1053    2.4867    2.8811 H   0  0  0  0  0  0  0  0  0  0  0  0
    3.7232    1.9914    2.2827 H   0  0  0  0  0  0  0  0  0  0  0  0
  1  2  1  0
  2  3  1  0
  3  4  2  0
  4  5  1  0
  5  6  1  0
  6  7  2  0
  7  8  1  0
  8  9  2  0
  5 10  2  0
 10 11  1  0
 11 12  2  0
 12 13  1  0
 13 14  2  0
 14 15  1  0
 14 16  1  0
 16 17  2  3
 17 18  1  0
 18 19  3  0
 17 20  1  0
 20 21  3  0
 10  2  1  0
  9  4  1  0
 15 11  1  0
  1 22  1  0
  1 23  1  0
  1 24  1  0
  6 25  1  0
  7 26  1  0
  8 27  1  0
  9 28  1  0
 12 29  1  0
 13 30  1  0
 16 31  1  0
M  END
