
     RDKit          3D

 31 34  0  0  0  0  0  0  0  0999 V2000
   -0.7041    2.9548   -0.2252 C   0  0  0  0  0  0  0  0  0  0  0  0
   -1.4817    1.7448   -0.0713 N   0  0  0  0  0  0  0  0  0  0  0  0
   -2.8296    1.8490   -0.0745 N   0  0  0  0  0  0  0  0  0  0  0  0
   -3.2712    0.5938    0.0862 C   0  0  0  0  0  0  0  0  0  0  0  0
   -2.1440   -0.3034    0.2066 C   0  0  0  0  0  0  0  0  0  0  0  0
   -2.2156   -1.6902    0.3578 C   0  0  0  0  0  0  0  0  0  0  0  0
   -3.5503   -2.1443    0.4038 C   0  0  0  0  0  0  0  0  0  0  0  0
   -4.6861   -1.2857    0.3022 C   0  0  0  0  0  0  0  0  0  0  0  0
   -4.5903    0.1122    0.1379 C   0  0  0  0  0  0  0  0  0  0  0  0
   -1.0048    0.4660    0.1203 C   0  0  0  0  0  0  0  0  0  0  0  0
    0.3893    0.1430    0.1937 C   0  0  0  0  0  0  0  0  0  0  0  0
    1.0247   -0.8333    0.9456 C   0  0  0  0  0  0  0  0  0  0  0  0
    2.4153   -0.7471    0.6766 C   0  0  0  0  0  0  0  0  0  0  0  0
    2.5541    0.2935   -0.2288 C   0  0  0  0  0  0  0  0  0  0  0  0
    3.7720    0.7143   -0.7570 C   0  0  0  0  0  0  0  0  0  0  0  0
    4.9093    0.0236   -0.3255 C   0  0  0  0  0  0  0  0  0  0  0  0
    4.8117   -1.0295    0.5884 C   0  0  0  0  0  0  0  0  0  0  0  0
    3.5689   -1.4286    1.1018 C   0  0  0  0  0  0  0  0  0  0  0  0
    1.3408    0.8344   -0.5139 O   0  0  0  0  0  0  0  0  0  0  0  0
    0.0394    3.0028    0.5741 H   0  0  0  0  0  0  0  0  0  0  0  0
   -0.2278    2.9341   -1.2082 H   0  0  0  0  0  0  0  0  0  0  0  0
   -1.3651    3.8231   -0.1541 H   0  0  0  0  0  0  0  0  0  0  0  0
   -1.3745   -2.3655    0.4179 H   0  0  0  0  0  0  0  0  0  0  0  0
   -3.7277   -3.2145    0.5182 H   0  0  0  0  0  0  0  0  0  0  0  0
   -5.6785   -1.7344    0.3475 H   0  0  0  0  0  0  0  0  0  0  0  0
   -5.4507    0.7608    0.0526 H   0  0  0  0  0  0  0  0  0  0  0  0
    0.5440   -1.5220    1.6251 H   0  0  0  0  0  0  0  0  0  0  0  0
    3.8289    1.5326   -1.4641 H   0  0  0  0  0  0  0  0  0  0  0  0
    5.8860    0.3124   -0.7087 H   0  0  0  0  0  0  0  0  0  0  0  0
    5.7132   -1.5488    0.9074 H   0  0  0  0  0  0  0  0  0  0  0  0
    3.5045   -2.2476    1.8118 H   0  0  0  0  0  0  0  0  0  0  0  0
  1  2  1  0
  2  3  1  0
  3  4  2  0
  4  5  1  0
  5  6  1  0
  6  7  2  0
  7  8  1  0
  8  9  2  0
  5 10  2  0
 10 11  1  0
 11 12  2  0
 12 13  1  0
 13 14  2  0
 14 15  1  0
 15 16  2  0
 16 17  1  0
 17 18  2  0
 14 19  1  0
 10  2  1  0
  9  4  1  0
 19 11  1  0
 18 13  1  0
  1 20  1  0
  1 21  1  0
  1 22  1  0
  6 23  1  0
  7 24  1  0
  8 25  1  0
  9 26  1  0
 12 27  1  0
 15 28  1  0
 16 29  1  0
 17 30  1  0
 18 31  1  0
M  END
