
     RDKit          3D

 24 25  0  0  0  0  0  0  0  0999 V2000
   -3.3923    0.8312   -0.9577 C   0  0  0  0  0  0  0  0  0  0  0  0
   -2.6931   -0.2640   -0.3229 N   0  0  0  0  0  0  0  0  0  0  0  0
   -3.3572   -1.4147   -0.0904 N   0  0  0  0  0  0  0  0  0  0  0  0
   -2.4569   -2.1894    0.5102 C   0  0  0  0  0  0  0  0  0  0  0  0
   -1.2137   -1.5505    0.6434 C   0  0  0  0  0  0  0  0  0  0  0  0
   -1.3747   -0.2969    0.0745 C   0  0  0  0  0  0  0  0  0  0  0  0
   -0.4478    0.8077   -0.0684 C   0  0  0  0  0  0  0  0  0  0  0  0
   -0.8089    1.9637   -0.2787 O   0  0  0  0  0  0  0  0  0  0  0  0
    1.0159    0.5688    0.0509 C   0  0  0  0  0  0  0  0  0  0  0  0
    1.7910    1.4969    0.7595 C   0  0  0  0  0  0  0  0  0  0  0  0
    3.1713    1.3137    0.8752 C   0  0  0  0  0  0  0  0  0  0  0  0
    3.7761    0.2120    0.2713 C   0  0  0  0  0  0  0  0  0  0  0  0
    5.4753   -0.0137    0.4129 Cl  0  0  0  0  0  0  0  0  0  0  0  0
    3.0147   -0.7046   -0.4541 C   0  0  0  0  0  0  0  0  0  0  0  0
    1.6333   -0.5245   -0.5714 C   0  0  0  0  0  0  0  0  0  0  0  0
   -2.8293    1.1412   -1.8413 H   0  0  0  0  0  0  0  0  0  0  0  0
   -4.3889    0.4985   -1.2609 H   0  0  0  0  0  0  0  0  0  0  0  0
   -3.4805    1.6475   -0.2370 H   0  0  0  0  0  0  0  0  0  0  0  0
   -2.7455   -3.1836    0.8273 H   0  0  0  0  0  0  0  0  0  0  0  0
   -0.3243   -1.9533    1.1072 H   0  0  0  0  0  0  0  0  0  0  0  0
    1.3216    2.3640    1.2211 H   0  0  0  0  0  0  0  0  0  0  0  0
    3.7664    2.0345    1.4303 H   0  0  0  0  0  0  0  0  0  0  0  0
    3.4915   -1.5541   -0.9370 H   0  0  0  0  0  0  0  0  0  0  0  0
    1.0562   -1.2304   -1.1641 H   0  0  0  0  0  0  0  0  0  0  0  0
  1  2  1  0
  2  3  1  0
  3  4  2  0
  4  5  1  0
  5  6  2  0
  6  7  1  0
  7  8  2  0
  7  9  1  0
  9 10  2  0
 10 11  1  0
 11 12  2  0
 12 13  1  0
 12 14  1  0
 14 15  2  0
  6  2  1  0
 15  9  1  0
  1 16  1  0
  1 17  1  0
  1 18  1  0
  4 19  1  0
  5 20  1  0
 10 21  1  0
 11 22  1  0
 14 23  1  0
 15 24  1  0
M  END
