
     RDKit          3D

 33 34  0  0  0  0  0  0  0  0999 V2000
    3.9943    2.9012   -0.3590 C   0  0  0  0  0  0  0  0  0  0  0  0
    3.0884    1.8171   -0.6389 N   0  0  0  0  0  0  0  0  0  0  0  0
    3.2658    0.9395   -1.6740 C   0  0  0  0  0  0  0  0  0  0  0  0
    4.2355    1.0041   -2.4267 O   0  0  0  0  0  0  0  0  0  0  0  0
    2.2662   -0.0857   -1.8600 C   0  0  0  0  0  0  0  0  0  0  0  0
    2.4139   -1.0113   -2.8755 N   0  0  0  0  0  0  0  0  0  0  0  0
    1.3636   -1.8742   -2.8476 C   0  0  0  0  0  0  0  0  0  0  0  0
    0.5280   -1.5726   -1.8845 N   0  0  0  0  0  0  0  0  0  0  0  0
    1.0707   -0.4500   -1.2509 C   0  0  0  0  0  0  0  0  0  0  0  0
    0.3706    0.1603   -0.1110 C   0  0  0  0  0  0  0  0  0  0  0  0
    0.8006    1.1525    0.4651 O   0  0  0  0  0  0  0  0  0  0  0  0
   -0.7846   -0.5342    0.1830 N   0  0  0  0  0  0  0  0  0  0  0  0
   -1.7434   -0.2870    1.1853 C   0  0  0  0  0  0  0  0  0  0  0  0
   -1.6452    0.7980    2.0644 C   0  0  0  0  0  0  0  0  0  0  0  0
   -2.6137    1.0159    3.0479 C   0  0  0  0  0  0  0  0  0  0  0  0
   -3.6948    0.1516    3.1661 C   0  0  0  0  0  0  0  0  0  0  0  0
   -3.8087   -0.9330    2.2997 C   0  0  0  0  0  0  0  0  0  0  0  0
   -2.8428   -1.1657    1.3043 C   0  0  0  0  0  0  0  0  0  0  0  0
   -3.0209   -2.3576    0.4009 C   0  0  0  0  0  0  0  0  0  0  0  0
    4.2711    2.8499    0.6975 H   0  0  0  0  0  0  0  0  0  0  0  0
    4.8947    2.8509   -0.9751 H   0  0  0  0  0  0  0  0  0  0  0  0
    3.4701    3.8417   -0.5475 H   0  0  0  0  0  0  0  0  0  0  0  0
    2.2496    1.7516   -0.0651 H   0  0  0  0  0  0  0  0  0  0  0  0
    3.1953   -1.0248   -3.5193 H   0  0  0  0  0  0  0  0  0  0  0  0
    1.2634   -2.6942   -3.5472 H   0  0  0  0  0  0  0  0  0  0  0  0
   -0.9273   -1.3344   -0.4287 H   0  0  0  0  0  0  0  0  0  0  0  0
   -0.8222    1.5030    2.0123 H   0  0  0  0  0  0  0  0  0  0  0  0
   -2.5187    1.8653    3.7193 H   0  0  0  0  0  0  0  0  0  0  0  0
   -4.4482    0.3209    3.9308 H   0  0  0  0  0  0  0  0  0  0  0  0
   -4.6612   -1.6007    2.4061 H   0  0  0  0  0  0  0  0  0  0  0  0
   -3.1072   -2.0356   -0.6417 H   0  0  0  0  0  0  0  0  0  0  0  0
   -3.9288   -2.9189    0.6461 H   0  0  0  0  0  0  0  0  0  0  0  0
   -2.1741   -3.0436    0.5062 H   0  0  0  0  0  0  0  0  0  0  0  0
  1  2  1  0
  2  3  1  0
  3  4  2  0
  3  5  1  0
  5  6  1  0
  6  7  1  0
  7  8  2  0
  8  9  1  0
  9 10  1  0
 10 11  2  0
 10 12  1  0
 12 13  1  0
 13 14  2  0
 14 15  1  0
 15 16  2  0
 16 17  1  0
 17 18  2  0
 18 19  1  0
  9  5  2  0
 18 13  1  0
  1 20  1  0
  1 21  1  0
  1 22  1  0
  2 23  1  0
  6 24  1  0
  7 25  1  0
 12 26  1  0
 14 27  1  0
 15 28  1  0
 16 29  1  0
 17 30  1  0
 19 31  1  0
 19 32  1  0
 19 33  1  0
M  END
