
     RDKit          3D

 33 34  0  0  0  0  0  0  0  0999 V2000
    4.9789   -0.6834    0.4165 C   0  0  0  0  0  0  0  0  0  0  0  0
    3.6997   -0.4001    1.0190 N   0  0  0  0  0  0  0  0  0  0  0  0
    2.6044   -0.1235    0.2167 C   0  0  0  0  0  0  0  0  0  0  0  0
    2.6302   -0.2408   -1.0060 O   0  0  0  0  0  0  0  0  0  0  0  0
    1.3471    0.2648    1.0096 C   0  0  0  0  0  0  0  0  0  0  0  0
    0.3623    0.9641    0.1896 N   0  0  0  0  0  0  0  0  0  0  0  0
    0.6658    2.3119   -0.0499 C   0  0  0  0  0  0  0  0  0  0  0  0
    1.7188    2.8308    0.3319 O   0  0  0  0  0  0  0  0  0  0  0  0
   -0.3291    3.1055   -0.8600 C   0  0  0  0  0  0  0  0  0  0  0  0
   -1.9342    3.0326   -0.0580 S   0  0  0  0  0  0  0  0  0  0  0  0
   -2.0788    1.2588   -0.0985 C   0  0  0  0  0  0  0  0  0  0  0  0
   -3.3626    0.8348   -0.1930 N   0  0  0  0  0  0  0  0  0  0  0  0
   -3.5873   -0.4881   -0.2542 C   0  0  0  0  0  0  0  0  0  0  0  0
   -5.0112   -0.9449   -0.3501 C   0  0  0  0  0  0  0  0  0  0  0  0
   -2.5500   -1.4077   -0.2652 C   0  0  0  0  0  0  0  0  0  0  0  0
   -1.2123   -0.9720   -0.1889 C   0  0  0  0  0  0  0  0  0  0  0  0
   -0.1677   -2.0416   -0.3607 C   0  0  0  0  0  0  0  0  0  0  0  0
   -0.9512    0.4078   -0.0362 C   0  0  0  0  0  0  0  0  0  0  0  0
    4.8632   -1.4165   -0.3863 H   0  0  0  0  0  0  0  0  0  0  0  0
    5.6463   -1.0763    1.1868 H   0  0  0  0  0  0  0  0  0  0  0  0
    5.3887    0.2437    0.0069 H   0  0  0  0  0  0  0  0  0  0  0  0
    3.7080    0.0000    1.9490 H   0  0  0  0  0  0  0  0  0  0  0  0
    1.6506    0.9339    1.8260 H   0  0  0  0  0  0  0  0  0  0  0  0
    0.9264   -0.6155    1.4972 H   0  0  0  0  0  0  0  0  0  0  0  0
   -0.3697    2.7150   -1.8821 H   0  0  0  0  0  0  0  0  0  0  0  0
   -0.0035    4.1491   -0.9060 H   0  0  0  0  0  0  0  0  0  0  0  0
   -5.1813   -1.4527   -1.3045 H   0  0  0  0  0  0  0  0  0  0  0  0
   -5.2450   -1.6313    0.4697 H   0  0  0  0  0  0  0  0  0  0  0  0
   -5.6985   -0.0949   -0.2877 H   0  0  0  0  0  0  0  0  0  0  0  0
   -2.7808   -2.4662   -0.3628 H   0  0  0  0  0  0  0  0  0  0  0  0
    0.2161   -2.3828    0.6035 H   0  0  0  0  0  0  0  0  0  0  0  0
   -0.5852   -2.9194   -0.8688 H   0  0  0  0  0  0  0  0  0  0  0  0
    0.6421   -1.6952   -1.0034 H   0  0  0  0  0  0  0  0  0  0  0  0
  1  2  1  0
  2  3  1  0
  3  4  2  0
  3  5  1  0
  5  6  1  0
  6  7  1  0
  7  8  2  0
  7  9  1  0
  9 10  1  0
 10 11  1  0
 11 12  2  0
 12 13  1  0
 13 14  1  0
 13 15  2  0
 15 16  1  0
 16 17  1  0
 16 18  2  0
 18  6  1  0
 18 11  1  0
  1 19  1  0
  1 20  1  0
  1 21  1  0
  2 22  1  0
  5 23  1  0
  5 24  1  0
  9 25  1  0
  9 26  1  0
 14 27  1  0
 14 28  1  0
 14 29  1  0
 15 30  1  0
 17 31  1  0
 17 32  1  0
 17 33  1  0
M  END
