
     RDKit          3D

 36 38  0  0  0  0  0  0  0  0999 V2000
   -1.1610    4.1264   -0.1238 C   0  0  0  0  0  0  0  0  0  0  0  0
   -0.8200    2.7683    0.2534 N   0  0  0  0  0  0  0  0  0  0  0  0
    0.3695    2.1641   -0.0988 C   0  0  0  0  0  0  0  0  0  0  0  0
    0.7138    0.8628   -0.1384 C   0  0  0  0  0  0  0  0  0  0  0  0
    2.1606    0.5977   -0.4227 C   0  0  0  0  0  0  0  0  0  0  0  0
    2.8561    1.3823   -1.0679 O   0  0  0  0  0  0  0  0  0  0  0  0
    2.7060   -0.7300    0.1275 C   0  0  0  0  0  0  0  0  0  0  0  0
    2.9560   -1.6880   -1.0449 C   0  0  0  0  0  0  0  0  0  0  0  0
    4.0352   -0.4392    0.8367 C   0  0  0  0  0  0  0  0  0  0  0  0
    1.8928   -1.3920    1.1033 O   0  0  0  0  0  0  0  0  0  0  0  0
    0.5454   -1.3734    0.8532 C   0  0  0  0  0  0  0  0  0  0  0  0
   -0.1553   -2.4998    1.2952 C   0  0  0  0  0  0  0  0  0  0  0  0
   -1.5221   -2.6166    1.0519 C   0  0  0  0  0  0  0  0  0  0  0  0
   -2.1889   -1.6069    0.3597 C   0  0  0  0  0  0  0  0  0  0  0  0
   -3.6065   -1.7207    0.0511 C   0  0  0  0  0  0  0  0  0  0  0  0
   -4.2192   -0.7517   -0.6342 C   0  0  0  0  0  0  0  0  0  0  0  0
   -3.5097    0.4503   -1.0947 C   0  0  0  0  0  0  0  0  0  0  0  0
   -4.0966    1.3361   -1.7034 O   0  0  0  0  0  0  0  0  0  0  0  0
   -2.1586    0.5291   -0.7877 O   0  0  0  0  0  0  0  0  0  0  0  0
   -1.4784   -0.4703   -0.0493 C   0  0  0  0  0  0  0  0  0  0  0  0
   -0.1092   -0.3062    0.2209 C   0  0  0  0  0  0  0  0  0  0  0  0
   -1.3038    4.1994   -1.2063 H   0  0  0  0  0  0  0  0  0  0  0  0
   -0.3772    4.8267    0.1817 H   0  0  0  0  0  0  0  0  0  0  0  0
   -2.0923    4.4219    0.3684 H   0  0  0  0  0  0  0  0  0  0  0  0
   -1.6163    2.1349    0.2495 H   0  0  0  0  0  0  0  0  0  0  0  0
    1.1227    2.9169   -0.3413 H   0  0  0  0  0  0  0  0  0  0  0  0
    3.3452   -2.6489   -0.6898 H   0  0  0  0  0  0  0  0  0  0  0  0
    3.6647   -1.2683   -1.7671 H   0  0  0  0  0  0  0  0  0  0  0  0
    2.0264   -1.9044   -1.5838 H   0  0  0  0  0  0  0  0  0  0  0  0
    4.7743    0.0074    0.1630 H   0  0  0  0  0  0  0  0  0  0  0  0
    4.4626   -1.3550    1.2611 H   0  0  0  0  0  0  0  0  0  0  0  0
    3.8810    0.2524    1.6736 H   0  0  0  0  0  0  0  0  0  0  0  0
    0.3738   -3.2965    1.8133 H   0  0  0  0  0  0  0  0  0  0  0  0
   -2.0474   -3.5064    1.3906 H   0  0  0  0  0  0  0  0  0  0  0  0
   -4.1511   -2.5988    0.3817 H   0  0  0  0  0  0  0  0  0  0  0  0
   -5.2724   -0.8034   -0.8819 H   0  0  0  0  0  0  0  0  0  0  0  0
  1  2  1  0
  2  3  1  0
  3  4  2  3
  4  5  1  0
  5  6  2  0
  5  7  1  0
  7  8  1  0
  7  9  1  0
  7 10  1  0
 10 11  1  0
 11 12  2  0
 12 13  1  0
 13 14  2  0
 14 15  1  0
 15 16  2  0
 16 17  1  0
 17 18  2  0
 17 19  1  0
 19 20  1  0
 20 21  2  0
 21  4  1  0
 21 11  1  0
 20 14  1  0
  1 22  1  0
  1 23  1  0
  1 24  1  0
  2 25  1  0
  3 26  1  0
  8 27  1  0
  8 28  1  0
  8 29  1  0
  9 30  1  0
  9 31  1  0
  9 32  1  0
 12 33  1  0
 13 34  1  0
 15 35  1  0
 16 36  1  0
M  END
