
     RDKit          3D

 31 32  0  0  0  0  0  0  0  0999 V2000
    2.0088    3.6525    0.0923 C   0  0  0  0  0  0  0  0  0  0  0  0
    2.2569    2.7382   -1.0001 N   0  0  0  0  0  0  0  0  0  0  0  0
    1.7831    1.4472   -0.7871 C   0  0  0  0  0  0  0  0  0  0  0  0
    2.5314    0.4799   -1.2819 N   0  0  0  0  0  0  0  0  0  0  0  0
    2.0550   -0.7372   -1.0760 C   0  0  0  0  0  0  0  0  0  0  0  0
    2.8431   -1.7475   -1.5891 O   0  0  0  0  0  0  0  0  0  0  0  0
    2.3096   -3.0453   -1.3650 C   0  0  0  0  0  0  0  0  0  0  0  0
    0.9315   -1.0400   -0.4360 N   0  0  0  0  0  0  0  0  0  0  0  0
    0.2408   -0.0044    0.0235 C   0  0  0  0  0  0  0  0  0  0  0  0
   -0.9294   -0.2476    0.7203 N   0  0  0  0  0  0  0  0  0  0  0  0
   -1.4777   -1.6060    0.6612 C   0  0  0  0  0  0  0  0  0  0  0  0
   -2.7882   -1.6671    1.4601 C   0  0  0  0  0  0  0  0  0  0  0  0
   -3.8030   -0.7772    0.9692 O   0  0  0  0  0  0  0  0  0  0  0  0
   -3.2753    0.3932    0.3249 C   0  0  0  0  0  0  0  0  0  0  0  0
   -1.9063    0.8388    0.8656 C   0  0  0  0  0  0  0  0  0  0  0  0
    0.6473    1.2517   -0.1278 N   0  0  0  0  0  0  0  0  0  0  0  0
    0.9383    3.8449    0.2236 H   0  0  0  0  0  0  0  0  0  0  0  0
    2.4294    3.2806    1.0332 H   0  0  0  0  0  0  0  0  0  0  0  0
    2.4863    4.6125   -0.1285 H   0  0  0  0  0  0  0  0  0  0  0  0
    3.2317    2.6366   -1.2643 H   0  0  0  0  0  0  0  0  0  0  0  0
    2.2396   -3.2678   -0.2944 H   0  0  0  0  0  0  0  0  0  0  0  0
    1.3377   -3.1671   -1.8561 H   0  0  0  0  0  0  0  0  0  0  0  0
    2.9982   -3.7706   -1.8094 H   0  0  0  0  0  0  0  0  0  0  0  0
   -0.7698   -2.3270    1.0864 H   0  0  0  0  0  0  0  0  0  0  0  0
   -1.6805   -1.8816   -0.3817 H   0  0  0  0  0  0  0  0  0  0  0  0
   -2.6072   -1.4147    2.5116 H   0  0  0  0  0  0  0  0  0  0  0  0
   -3.2002   -2.6809    1.4335 H   0  0  0  0  0  0  0  0  0  0  0  0
   -4.0095    1.1951    0.4525 H   0  0  0  0  0  0  0  0  0  0  0  0
   -3.2089    0.1790   -0.7484 H   0  0  0  0  0  0  0  0  0  0  0  0
   -1.6173    1.7633    0.3542 H   0  0  0  0  0  0  0  0  0  0  0  0
   -1.9955    1.0684    1.9340 H   0  0  0  0  0  0  0  0  0  0  0  0
  1  2  1  0
  2  3  1  0
  3  4  2  0
  4  5  1  0
  5  6  1  0
  6  7  1  0
  5  8  2  0
  8  9  1  0
  9 10  1  0
 10 11  1  0
 11 12  1  0
 12 13  1  0
 13 14  1  0
 14 15  1  0
  9 16  2  0
 16  3  1  0
 15 10  1  0
  1 17  1  0
  1 18  1  0
  1 19  1  0
  2 20  1  0
  7 21  1  0
  7 22  1  0
  7 23  1  0
 11 24  1  0
 11 25  1  0
 12 26  1  0
 12 27  1  0
 14 28  1  0
 14 29  1  0
 15 30  1  0
 15 31  1  0
M  END
