
     RDKit          3D

 35 36  0  0  0  0  0  0  0  0999 V2000
   -3.2432    1.3062    2.6899 C   0  0  0  0  0  0  0  0  0  0  0  0
   -1.9218    1.2364    2.1512 O   0  0  0  0  0  0  0  0  0  0  0  0
   -1.8675    1.3652    0.7967 C   0  0  0  0  0  0  0  0  0  0  0  0
   -2.8400    1.4952    0.0636 O   0  0  0  0  0  0  0  0  0  0  0  0
   -0.4499    1.2680    0.2922 C   0  0  0  0  0  0  0  0  0  0  0  0
    0.4371    2.3117    0.9222 C   0  0  0  0  0  0  0  0  0  0  0  0
    0.0380    3.4211    1.2662 O   0  0  0  0  0  0  0  0  0  0  0  0
    1.7690    2.0147    0.9880 N   0  0  0  0  0  0  0  0  0  0  0  0
    2.3409    0.8028    0.7407 C   0  0  0  0  0  0  0  0  0  0  0  0
    4.0631    0.8315    0.8962 S   0  0  0  0  0  0  0  0  0  0  0  0
    4.5465    0.8614   -0.8473 C   0  0  0  0  0  0  0  0  0  0  0  0
    1.5908   -0.2867    0.4985 C   0  0  0  0  0  0  0  0  0  0  0  0
    2.1846   -1.5816    0.3594 C   0  0  0  0  0  0  0  0  0  0  0  0
    2.6612   -2.6306    0.2267 N   0  0  0  0  0  0  0  0  0  0  0  0
    0.0698   -0.1746    0.4701 C   0  0  0  0  0  0  0  0  0  0  0  0
   -0.5710   -1.0748   -0.5875 C   0  0  0  0  0  0  0  0  0  0  0  0
   -0.2380   -0.9779   -1.9494 C   0  0  0  0  0  0  0  0  0  0  0  0
   -0.8494   -1.8132   -2.8883 C   0  0  0  0  0  0  0  0  0  0  0  0
   -1.8007   -2.7496   -2.4839 C   0  0  0  0  0  0  0  0  0  0  0  0
   -2.1450   -2.8517   -1.1384 C   0  0  0  0  0  0  0  0  0  0  0  0
   -1.5336   -2.0190   -0.2069 C   0  0  0  0  0  0  0  0  0  0  0  0
   -1.8870   -2.1263    1.0818 F   0  0  0  0  0  0  0  0  0  0  0  0
   -3.1707    1.2138    3.7771 H   0  0  0  0  0  0  0  0  0  0  0  0
   -3.7038    2.2706    2.4539 H   0  0  0  0  0  0  0  0  0  0  0  0
   -3.8535    0.4802    2.3115 H   0  0  0  0  0  0  0  0  0  0  0  0
   -0.4742    1.5407   -0.7729 H   0  0  0  0  0  0  0  0  0  0  0  0
    2.3734    2.7593    1.3210 H   0  0  0  0  0  0  0  0  0  0  0  0
    5.6361    0.9181   -0.9170 H   0  0  0  0  0  0  0  0  0  0  0  0
    4.2136   -0.0447   -1.3603 H   0  0  0  0  0  0  0  0  0  0  0  0
    4.1203    1.7359   -1.3470 H   0  0  0  0  0  0  0  0  0  0  0  0
   -0.2474   -0.5419    1.4574 H   0  0  0  0  0  0  0  0  0  0  0  0
    0.4977   -0.2563   -2.2981 H   0  0  0  0  0  0  0  0  0  0  0  0
   -0.5842   -1.7340   -3.9405 H   0  0  0  0  0  0  0  0  0  0  0  0
   -2.2744   -3.3972   -3.2175 H   0  0  0  0  0  0  0  0  0  0  0  0
   -2.8867   -3.5727   -0.8094 H   0  0  0  0  0  0  0  0  0  0  0  0
  1  2  1  0
  2  3  1  0
  3  4  2  0
  3  5  1  0
  5  6  1  0
  6  7  2  0
  6  8  1  0
  8  9  1  0
  9 10  1  0
 10 11  1  0
  9 12  2  0
 12 13  1  0
 13 14  3  0
 12 15  1  0
 15 16  1  0
 16 17  2  0
 17 18  1  0
 18 19  2  0
 19 20  1  0
 20 21  2  0
 21 22  1  0
 15  5  1  0
 21 16  1  0
  1 23  1  0
  1 24  1  0
  1 25  1  0
  5 26  1  0
  8 27  1  0
 11 28  1  0
 11 29  1  0
 11 30  1  0
 15 31  1  0
 17 32  1  0
 18 33  1  0
 19 34  1  0
 20 35  1  0
M  END
