
     RDKit          3D

 42 46  0  0  0  0  0  0  0  0999 V2000
    7.1577    2.4413   -1.4065 C   0  0  0  0  0  0  0  0  0  0  0  0
    6.4936    1.4523   -0.6203 O   0  0  0  0  0  0  0  0  0  0  0  0
    5.1377    1.4330   -0.7715 C   0  0  0  0  0  0  0  0  0  0  0  0
    4.5216    2.1916   -1.5124 O   0  0  0  0  0  0  0  0  0  0  0  0
    4.5122    0.4045    0.0533 C   0  0  0  0  0  0  0  0  0  0  0  0
    3.1278    0.1446    0.0907 C   0  0  0  0  0  0  0  0  0  0  0  0
    2.7668   -0.9047    0.9792 C   0  0  0  0  0  0  0  0  0  0  0  0
    3.9295   -1.3995    1.5646 C   0  0  0  0  0  0  0  0  0  0  0  0
    3.6633   -2.4277    2.4209 C   0  0  0  0  0  0  0  0  0  0  0  0
    1.9718   -2.7457    2.4661 S   0  0  0  0  0  0  0  0  0  0  0  0
    1.5951   -1.4957    1.3303 C   0  0  0  0  0  0  0  0  0  0  0  0
    0.2502   -1.1931    0.9164 C   0  0  0  0  0  0  0  0  0  0  0  0
   -0.2936    0.0592    0.7267 C   0  0  0  0  0  0  0  0  0  0  0  0
   -1.6607    0.0357    0.2785 C   0  0  0  0  0  0  0  0  0  0  0  0
   -2.1323   -1.2706    0.1742 C   0  0  0  0  0  0  0  0  0  0  0  0
   -0.8951   -2.4081    0.5628 S   0  0  0  0  0  0  0  0  0  0  0  0
   -3.4585   -1.5259   -0.2062 C   0  0  0  0  0  0  0  0  0  0  0  0
   -3.9017   -2.8373   -0.3289 O   0  0  0  0  0  0  0  0  0  0  0  0
   -4.4835   -3.2685    0.9029 C   0  0  0  0  0  0  0  0  0  0  0  0
   -4.3399   -0.4752   -0.5312 C   0  0  0  0  0  0  0  0  0  0  0  0
   -5.7078   -0.4998   -0.9786 C   0  0  0  0  0  0  0  0  0  0  0  0
   -6.2364    0.7539   -1.1668 C   0  0  0  0  0  0  0  0  0  0  0  0
   -5.1044    1.9757   -0.8168 S   0  0  0  0  0  0  0  0  0  0  0  0
   -3.8669    0.8333   -0.4267 C   0  0  0  0  0  0  0  0  0  0  0  0
   -2.5405    1.0872   -0.0459 C   0  0  0  0  0  0  0  0  0  0  0  0
   -2.0942    2.3976    0.0772 O   0  0  0  0  0  0  0  0  0  0  0  0
   -1.5101    2.8282   -1.1539 C   0  0  0  0  0  0  0  0  0  0  0  0
    5.4841   -0.6285    1.1020 S   0  0  0  0  0  0  0  0  0  0  0  0
    8.2306    2.3667   -1.2089 H   0  0  0  0  0  0  0  0  0  0  0  0
    6.8230    3.4444   -1.1241 H   0  0  0  0  0  0  0  0  0  0  0  0
    6.9890    2.2609   -2.4727 H   0  0  0  0  0  0  0  0  0  0  0  0
    2.4292    0.7068   -0.5196 H   0  0  0  0  0  0  0  0  0  0  0  0
    4.3750   -2.9929    3.0069 H   0  0  0  0  0  0  0  0  0  0  0  0
    0.2523    0.9790    0.9010 H   0  0  0  0  0  0  0  0  0  0  0  0
   -4.7809   -4.3145    0.7829 H   0  0  0  0  0  0  0  0  0  0  0  0
   -3.7669   -3.2134    1.7292 H   0  0  0  0  0  0  0  0  0  0  0  0
   -5.3806   -2.6876    1.1419 H   0  0  0  0  0  0  0  0  0  0  0  0
   -6.2699   -1.4107   -1.1470 H   0  0  0  0  0  0  0  0  0  0  0  0
   -7.2357    1.0098   -1.4914 H   0  0  0  0  0  0  0  0  0  0  0  0
   -2.2245    2.7709   -1.9820 H   0  0  0  0  0  0  0  0  0  0  0  0
   -1.2145    3.8748   -1.0344 H   0  0  0  0  0  0  0  0  0  0  0  0
   -0.6116    2.2482   -1.3895 H   0  0  0  0  0  0  0  0  0  0  0  0
  1  2  1  0
  2  3  1  0
  3  4  2  0
  3  5  1  0
  5  6  2  0
  6  7  1  0
  7  8  1  0
  8  9  2  0
  9 10  1  0
 10 11  1  0
 11 12  1  0
 12 13  2  0
 13 14  1  0
 14 15  2  0
 15 16  1  0
 15 17  1  0
 17 18  1  0
 18 19  1  0
 17 20  2  0
 20 21  1  0
 21 22  2  0
 22 23  1  0
 23 24  1  0
 24 25  2  0
 25 26  1  0
 26 27  1  0
  8 28  1  0
 28  5  1  0
 11  7  2  0
 16 12  1  0
 24 20  1  0
 25 14  1  0
  1 29  1  0
  1 30  1  0
  1 31  1  0
  6 32  1  0
  9 33  1  0
 13 34  1  0
 19 35  1  0
 19 36  1  0
 19 37  1  0
 21 38  1  0
 22 39  1  0
 27 40  1  0
 27 41  1  0
 27 42  1  0
M  END
