
     RDKit          3D

 42 46  0  0  0  0  0  0  0  0999 V2000
    7.7210    1.3188   -0.3517 C   0  0  0  0  0  0  0  0  0  0  0  0
    6.5739    1.3199   -1.2011 O   0  0  0  0  0  0  0  0  0  0  0  0
    5.3968    1.0803   -0.5530 C   0  0  0  0  0  0  0  0  0  0  0  0
    5.3114    0.8790    0.6535 O   0  0  0  0  0  0  0  0  0  0  0  0
    4.2598    1.0933   -1.4680 C   0  0  0  0  0  0  0  0  0  0  0  0
    2.9227    0.8653   -1.0859 C   0  0  0  0  0  0  0  0  0  0  0  0
    1.9999    0.9303   -2.1658 C   0  0  0  0  0  0  0  0  0  0  0  0
    2.7099    1.2230   -3.3277 C   0  0  0  0  0  0  0  0  0  0  0  0
    1.8860    1.3176   -4.4111 C   0  0  0  0  0  0  0  0  0  0  0  0
    0.2520    1.0418   -3.9457 S   0  0  0  0  0  0  0  0  0  0  0  0
    0.6532    0.7950   -2.2800 C   0  0  0  0  0  0  0  0  0  0  0  0
   -0.3338    0.4838   -1.2816 C   0  0  0  0  0  0  0  0  0  0  0  0
   -1.8374    1.2904   -1.1965 S   0  0  0  0  0  0  0  0  0  0  0  0
   -2.3550    0.3904    0.1849 C   0  0  0  0  0  0  0  0  0  0  0  0
   -1.3832   -0.5253    0.5845 C   0  0  0  0  0  0  0  0  0  0  0  0
   -0.2433   -0.4441   -0.2732 C   0  0  0  0  0  0  0  0  0  0  0  0
    0.8308   -1.2350   -0.1108 F   0  0  0  0  0  0  0  0  0  0  0  0
   -1.6579   -1.3353    1.7038 C   0  0  0  0  0  0  0  0  0  0  0  0
   -0.6952   -2.2324    2.1460 O   0  0  0  0  0  0  0  0  0  0  0  0
   -0.8530   -3.4875    1.4828 C   0  0  0  0  0  0  0  0  0  0  0  0
   -2.8437   -1.1794    2.4384 C   0  0  0  0  0  0  0  0  0  0  0  0
   -3.3197   -2.0144    3.8806 S   0  0  0  0  0  0  0  0  0  0  0  0
   -4.7955   -1.1718    3.9779 C   0  0  0  0  0  0  0  0  0  0  0  0
   -4.9200   -0.2843    2.9449 C   0  0  0  0  0  0  0  0  0  0  0  0
   -6.0029    0.4952    2.8034 F   0  0  0  0  0  0  0  0  0  0  0  0
   -3.8165   -0.2610    2.0388 C   0  0  0  0  0  0  0  0  0  0  0  0
   -3.5696    0.5002    0.8796 C   0  0  0  0  0  0  0  0  0  0  0  0
   -4.5015    1.4464    0.4749 O   0  0  0  0  0  0  0  0  0  0  0  0
   -5.4672    0.8448   -0.3887 C   0  0  0  0  0  0  0  0  0  0  0  0
    4.4896    1.4134   -3.1878 S   0  0  0  0  0  0  0  0  0  0  0  0
    8.6003    1.5192   -0.9701 H   0  0  0  0  0  0  0  0  0  0  0  0
    7.8471    0.3400    0.1217 H   0  0  0  0  0  0  0  0  0  0  0  0
    7.6413    2.1082    0.4021 H   0  0  0  0  0  0  0  0  0  0  0  0
    2.6544    0.6614   -0.0543 H   0  0  0  0  0  0  0  0  0  0  0  0
    2.1701    1.5335   -5.4320 H   0  0  0  0  0  0  0  0  0  0  0  0
   -0.6902   -3.3916    0.4042 H   0  0  0  0  0  0  0  0  0  0  0  0
   -0.0975   -4.1722    1.8793 H   0  0  0  0  0  0  0  0  0  0  0  0
   -1.8396   -3.9212    1.6780 H   0  0  0  0  0  0  0  0  0  0  0  0
   -5.4971   -1.3595    4.7778 H   0  0  0  0  0  0  0  0  0  0  0  0
   -6.0469    0.0775    0.1350 H   0  0  0  0  0  0  0  0  0  0  0  0
   -6.1585    1.6280   -0.7136 H   0  0  0  0  0  0  0  0  0  0  0  0
   -4.9952    0.4181   -1.2802 H   0  0  0  0  0  0  0  0  0  0  0  0
  1  2  1  0
  2  3  1  0
  3  4  2  0
  3  5  1  0
  5  6  2  0
  6  7  1  0
  7  8  1  0
  8  9  2  0
  9 10  1  0
 10 11  1  0
 11 12  1  0
 12 13  1  0
 13 14  1  0
 14 15  2  0
 15 16  1  0
 16 17  1  0
 15 18  1  0
 18 19  1  0
 19 20  1  0
 18 21  2  0
 21 22  1  0
 22 23  1  0
 23 24  2  0
 24 25  1  0
 24 26  1  0
 26 27  2  0
 27 28  1  0
 28 29  1  0
  8 30  1  0
 30  5  1  0
 11  7  2  0
 16 12  2  0
 26 21  1  0
 27 14  1  0
  1 31  1  0
  1 32  1  0
  1 33  1  0
  6 34  1  0
  9 35  1  0
 20 36  1  0
 20 37  1  0
 20 38  1  0
 23 39  1  0
 29 40  1  0
 29 41  1  0
 29 42  1  0
M  END
