
     RDKit          3D

 31 32  0  0  0  0  0  0  0  0999 V2000
    4.5725   -1.0015   -3.7944 C   0  0  0  0  0  0  0  0  0  0  0  0
    3.4748   -0.7073   -2.9281 O   0  0  0  0  0  0  0  0  0  0  0  0
    3.6158   -1.2054   -1.6678 C   0  0  0  0  0  0  0  0  0  0  0  0
    4.5837   -1.8454   -1.2830 O   0  0  0  0  0  0  0  0  0  0  0  0
    2.4228   -0.8659   -0.8227 C   0  0  0  0  0  0  0  0  0  0  0  0
    1.4372   -0.0675   -1.2681 C   0  0  0  0  0  0  0  0  0  0  0  0
    0.2666    0.3070   -0.4615 C   0  0  0  0  0  0  0  0  0  0  0  0
   -0.5178    1.3899   -0.8798 C   0  0  0  0  0  0  0  0  0  0  0  0
   -1.6417    1.7865   -0.1480 C   0  0  0  0  0  0  0  0  0  0  0  0
   -2.0045    1.1062    1.0155 C   0  0  0  0  0  0  0  0  0  0  0  0
   -3.0651    1.4447    1.8138 O   0  0  0  0  0  0  0  0  0  0  0  0
   -3.7617    2.6466    1.5137 C   0  0  0  0  0  0  0  0  0  0  0  0
   -1.2438   -0.0062    1.4208 C   0  0  0  0  0  0  0  0  0  0  0  0
   -1.5411   -0.6364    2.6060 O   0  0  0  0  0  0  0  0  0  0  0  0
   -2.6406   -1.5346    2.4450 C   0  0  0  0  0  0  0  0  0  0  0  0
   -0.1071   -0.3997    0.6928 C   0  0  0  0  0  0  0  0  0  0  0  0
    0.6848   -1.5837    1.1041 C   0  0  0  0  0  0  0  0  0  0  0  0
    0.1804   -2.5683    1.6246 O   0  0  0  0  0  0  0  0  0  0  0  0
    2.4091   -1.5375    0.7759 S   0  0  0  0  0  0  0  0  0  0  0  0
    5.4950   -0.5557   -3.4094 H   0  0  0  0  0  0  0  0  0  0  0  0
    4.6845   -2.0832   -3.9181 H   0  0  0  0  0  0  0  0  0  0  0  0
    4.3582   -0.5620   -4.7725 H   0  0  0  0  0  0  0  0  0  0  0  0
    1.4794    0.3583   -2.2678 H   0  0  0  0  0  0  0  0  0  0  0  0
   -0.2590    1.9496   -1.7775 H   0  0  0  0  0  0  0  0  0  0  0  0
   -2.2076    2.6388   -0.5114 H   0  0  0  0  0  0  0  0  0  0  0  0
   -3.0908    3.5116    1.5389 H   0  0  0  0  0  0  0  0  0  0  0  0
   -4.5231    2.7933    2.2859 H   0  0  0  0  0  0  0  0  0  0  0  0
   -4.2758    2.5715    0.5500 H   0  0  0  0  0  0  0  0  0  0  0  0
   -3.5909   -0.9941    2.4904 H   0  0  0  0  0  0  0  0  0  0  0  0
   -2.6169   -2.2433    3.2782 H   0  0  0  0  0  0  0  0  0  0  0  0
   -2.5772   -2.1063    1.5119 H   0  0  0  0  0  0  0  0  0  0  0  0
  1  2  1  0
  2  3  1  0
  3  4  2  0
  3  5  1  0
  5  6  2  0
  6  7  1  0
  7  8  2  0
  8  9  1  0
  9 10  2  0
 10 11  1  0
 11 12  1  0
 10 13  1  0
 13 14  1  0
 14 15  1  0
 13 16  2  0
 16 17  1  0
 17 18  2  0
 17 19  1  0
 19  5  1  0
 16  7  1  0
  1 20  1  0
  1 21  1  0
  1 22  1  0
  6 23  1  0
  8 24  1  0
  9 25  1  0
 12 26  1  0
 12 27  1  0
 12 28  1  0
 15 29  1  0
 15 30  1  0
 15 31  1  0
M  END
