
     RDKit          3D

 40 44  0  0  0  0  0  0  0  0999 V2000
    6.2571   -1.2924    3.3871 C   0  0  0  0  0  0  0  0  0  0  0  0
    5.2477   -0.8000    2.5063 O   0  0  0  0  0  0  0  0  0  0  0  0
    5.7056    0.0652    1.5559 C   0  0  0  0  0  0  0  0  0  0  0  0
    6.8794    0.4049    1.4504 O   0  0  0  0  0  0  0  0  0  0  0  0
    4.6334    0.5354    0.6850 C   0  0  0  0  0  0  0  0  0  0  0  0
    4.8097    1.4366   -0.3830 C   0  0  0  0  0  0  0  0  0  0  0  0
    3.6103    1.7325   -1.0705 C   0  0  0  0  0  0  0  0  0  0  0  0
    3.3253    2.5359   -2.1183 C   0  0  0  0  0  0  0  0  0  0  0  0
    1.6336    2.4318   -2.4170 S   0  0  0  0  0  0  0  0  0  0  0  0
    1.3748    1.2934   -1.1402 C   0  0  0  0  0  0  0  0  0  0  0  0
    0.0784    0.7557   -0.8430 C   0  0  0  0  0  0  0  0  0  0  0  0
   -1.0883    1.4625   -0.6544 C   0  0  0  0  0  0  0  0  0  0  0  0
   -2.2409    0.6364   -0.3852 C   0  0  0  0  0  0  0  0  0  0  0  0
   -1.8939   -0.7134   -0.3980 C   0  0  0  0  0  0  0  0  0  0  0  0
   -0.2061   -0.9158   -0.7316 S   0  0  0  0  0  0  0  0  0  0  0  0
   -2.8419   -1.7370   -0.1663 C   0  0  0  0  0  0  0  0  0  0  0  0
   -2.3994   -3.1848   -0.1918 C   0  0  0  0  0  0  0  0  0  0  0  0
   -4.1939   -1.3836    0.0761 C   0  0  0  0  0  0  0  0  0  0  0  0
   -5.3491   -2.2120    0.3267 C   0  0  0  0  0  0  0  0  0  0  0  0
   -6.5059   -1.4987    0.5169 C   0  0  0  0  0  0  0  0  0  0  0  0
   -6.2370    0.1716    0.3990 S   0  0  0  0  0  0  0  0  0  0  0  0
   -4.5410   -0.0319    0.0894 C   0  0  0  0  0  0  0  0  0  0  0  0
   -3.5897    0.9917   -0.1292 C   0  0  0  0  0  0  0  0  0  0  0  0
   -4.0297    2.4400   -0.1013 C   0  0  0  0  0  0  0  0  0  0  0  0
    2.5554    1.0280   -0.4936 C   0  0  0  0  0  0  0  0  0  0  0  0
    2.9729   -0.0114    0.9224 S   0  0  0  0  0  0  0  0  0  0  0  0
    6.7128   -0.4694    3.9466 H   0  0  0  0  0  0  0  0  0  0  0  0
    5.7824   -1.9729    4.0993 H   0  0  0  0  0  0  0  0  0  0  0  0
    7.0155   -1.8501    2.8287 H   0  0  0  0  0  0  0  0  0  0  0  0
    5.7825    1.8498   -0.6280 H   0  0  0  0  0  0  0  0  0  0  0  0
    3.9699    3.1688   -2.7121 H   0  0  0  0  0  0  0  0  0  0  0  0
   -1.1198    2.5442   -0.6987 H   0  0  0  0  0  0  0  0  0  0  0  0
   -1.6037   -3.3491    0.5427 H   0  0  0  0  0  0  0  0  0  0  0  0
   -3.2090   -3.8776    0.0496 H   0  0  0  0  0  0  0  0  0  0  0  0
   -2.0282   -3.4450   -1.1888 H   0  0  0  0  0  0  0  0  0  0  0  0
   -5.3305   -3.2936    0.3652 H   0  0  0  0  0  0  0  0  0  0  0  0
   -7.4957   -1.8843    0.7189 H   0  0  0  0  0  0  0  0  0  0  0  0
   -4.5430    2.6633    0.8400 H   0  0  0  0  0  0  0  0  0  0  0  0
   -4.7085    2.6390   -0.9373 H   0  0  0  0  0  0  0  0  0  0  0  0
   -3.1914    3.1362   -0.1804 H   0  0  0  0  0  0  0  0  0  0  0  0
  1  2  1  0
  2  3  1  0
  3  4  2  0
  3  5  1  0
  5  6  2  0
  6  7  1  0
  7  8  2  0
  8  9  1  0
  9 10  1  0
 10 11  1  0
 11 12  2  0
 12 13  1  0
 13 14  2  0
 14 15  1  0
 14 16  1  0
 16 17  1  0
 16 18  2  0
 18 19  1  0
 19 20  2  0
 20 21  1  0
 21 22  1  0
 22 23  2  0
 23 24  1  0
 10 25  2  0
 25 26  1  0
 26  5  1  0
 25  7  1  0
 15 11  1  0
 22 18  1  0
 23 13  1  0
  1 27  1  0
  1 28  1  0
  1 29  1  0
  6 30  1  0
  8 31  1  0
 12 32  1  0
 17 33  1  0
 17 34  1  0
 17 35  1  0
 19 36  1  0
 20 37  1  0
 24 38  1  0
 24 39  1  0
 24 40  1  0
M  END
