
     RDKit          3D

 25 27  0  0  0  0  0  0  0  0999 V2000
    5.2970   -0.8332    0.2179 C   0  0  0  0  0  0  0  0  0  0  0  0
    4.0508   -0.1433    0.1173 O   0  0  0  0  0  0  0  0  0  0  0  0
    2.9560   -0.9597    0.1822 C   0  0  0  0  0  0  0  0  0  0  0  0
    3.0203   -2.1759    0.3172 O   0  0  0  0  0  0  0  0  0  0  0  0
    1.7424   -0.1612    0.0692 C   0  0  0  0  0  0  0  0  0  0  0  0
    1.6324    1.2351   -0.0754 C   0  0  0  0  0  0  0  0  0  0  0  0
    0.2931    1.6836   -0.1554 C   0  0  0  0  0  0  0  0  0  0  0  0
   -0.2590    2.9076   -0.3007 C   0  0  0  0  0  0  0  0  0  0  0  0
   -1.9686    2.7141   -0.3304 S   0  0  0  0  0  0  0  0  0  0  0  0
   -1.8820    0.9962   -0.1439 C   0  0  0  0  0  0  0  0  0  0  0  0
   -3.0397    0.1489   -0.0690 C   0  0  0  0  0  0  0  0  0  0  0  0
   -3.2919   -0.8492    0.8546 C   0  0  0  0  0  0  0  0  0  0  0  0
   -4.5384   -1.5049    0.6308 C   0  0  0  0  0  0  0  0  0  0  0  0
   -5.2025   -0.9873   -0.4572 C   0  0  0  0  0  0  0  0  0  0  0  0
   -4.3270    0.2793   -1.1985 S   0  0  0  0  0  0  0  0  0  0  0  0
   -0.5720    0.5950   -0.0644 C   0  0  0  0  0  0  0  0  0  0  0  0
    0.2030   -1.0260    0.1135 S   0  0  0  0  0  0  0  0  0  0  0  0
    5.3756   -1.3451    1.1821 H   0  0  0  0  0  0  0  0  0  0  0  0
    6.0994   -0.0930    0.1535 H   0  0  0  0  0  0  0  0  0  0  0  0
    5.4122   -1.5406   -0.6093 H   0  0  0  0  0  0  0  0  0  0  0  0
    2.4994    1.8846   -0.1206 H   0  0  0  0  0  0  0  0  0  0  0  0
    0.2039    3.8801   -0.3925 H   0  0  0  0  0  0  0  0  0  0  0  0
   -2.6172   -1.1009    1.6642 H   0  0  0  0  0  0  0  0  0  0  0  0
   -4.9258   -2.3138    1.2382 H   0  0  0  0  0  0  0  0  0  0  0  0
   -6.1614   -1.2903   -0.8548 H   0  0  0  0  0  0  0  0  0  0  0  0
  1  2  1  0
  2  3  1  0
  3  4  2  0
  3  5  1  0
  5  6  2  0
  6  7  1  0
  7  8  2  0
  8  9  1  0
  9 10  1  0
 10 11  1  0
 11 12  2  0
 12 13  1  0
 13 14  2  0
 14 15  1  0
 10 16  2  0
 16 17  1  0
 17  5  1  0
 16  7  1  0
 15 11  1  0
  1 18  1  0
  1 19  1  0
  1 20  1  0
  6 21  1  0
  8 22  1  0
 12 23  1  0
 13 24  1  0
 14 25  1  0
M  END
