
     RDKit          3D

 33 38  0  0  0  0  0  0  0  0999 V2000
    3.5264    0.6900   -2.6097 Si  0  0  0  0  0  4  0  0  0  0  0  0
    5.1779    0.5225   -1.6628 C   0  0  0  0  0  0  0  0  0  0  0  0
    5.0220    0.2257   -0.3570 C   0  0  0  0  0  0  0  0  0  0  0  0
    3.6162    0.1045    0.0134 C   0  0  0  0  0  0  0  0  0  0  0  0
    2.6666    0.3134   -1.0333 C   0  0  0  0  0  0  0  0  0  0  0  0
    1.2965    0.2199   -0.7816 C   0  0  0  0  0  0  0  0  0  0  0  0
    0.2387    0.3833   -1.6384 O   0  0  0  0  0  0  0  0  0  0  0  0
   -0.8880    0.1795   -0.8651 C   0  0  0  0  0  0  0  0  0  0  0  0
   -2.2627    0.2096   -1.1649 C   0  0  0  0  0  0  0  0  0  0  0  0
   -2.9888   -0.0673   -0.0174 C   0  0  0  0  0  0  0  0  0  0  0  0
   -1.9937   -0.3523    1.3739 S   0  0  0  0  0  0  0  0  0  0  0  0
   -0.5723   -0.1031    0.4338 C   0  0  0  0  0  0  0  0  0  0  0  0
    0.8111   -0.0731    0.4673 C   0  0  0  0  0  0  0  0  0  0  0  0
    1.6806   -0.2933    1.5547 C   0  0  0  0  0  0  0  0  0  0  0  0
    1.5009   -0.5920    2.8655 C   0  0  0  0  0  0  0  0  0  0  0  0
    2.7504   -0.6858    3.4351 O   0  0  0  0  0  0  0  0  0  0  0  0
    3.6842   -0.4402    2.4522 C   0  0  0  0  0  0  0  0  0  0  0  0
    3.0572   -0.1892    1.2565 C   0  0  0  0  0  0  0  0  0  0  0  0
   -4.4281   -0.1232    0.0589 C   0  0  0  0  0  0  0  0  0  0  0  0
   -5.2599   -0.3877    1.1378 C   0  0  0  0  0  0  0  0  0  0  0  0
   -6.5963   -0.3196    0.6734 C   0  0  0  0  0  0  0  0  0  0  0  0
   -6.5156   -0.0178   -0.6621 C   0  0  0  0  0  0  0  0  0  0  0  0
   -5.2204    0.1025   -1.0427 O   0  0  0  0  0  0  0  0  0  0  0  0
    3.3489    2.0827   -3.0916 H   0  0  0  0  0  0  0  0  0  0  0  0
    3.4154   -0.3712   -3.6416 H   0  0  0  0  0  0  0  0  0  0  0  0
    6.1111    0.6651   -2.1860 H   0  0  0  0  0  0  0  0  0  0  0  0
    5.8291    0.0894    0.3485 H   0  0  0  0  0  0  0  0  0  0  0  0
   -2.6923    0.4157   -2.1362 H   0  0  0  0  0  0  0  0  0  0  0  0
    0.6636   -0.7627    3.5263 H   0  0  0  0  0  0  0  0  0  0  0  0
    4.7137   -0.4854    2.7781 H   0  0  0  0  0  0  0  0  0  0  0  0
   -4.9414   -0.6058    2.1479 H   0  0  0  0  0  0  0  0  0  0  0  0
   -7.5025   -0.4717    1.2424 H   0  0  0  0  0  0  0  0  0  0  0  0
   -7.2483    0.1374   -1.4419 H   0  0  0  0  0  0  0  0  0  0  0  0
  1  2  1  0
  2  3  2  0
  3  4  1  0
  4  5  2  0
  5  6  1  0
  6  7  1  0
  7  8  1  0
  8  9  1  0
  9 10  2  0
 10 11  1  0
 11 12  1  0
 12 13  1  0
 13 14  1  0
 14 15  2  0
 15 16  1  0
 16 17  1  0
 17 18  2  0
 10 19  1  0
 19 20  2  0
 20 21  1  0
 21 22  2  0
 22 23  1  0
  5  1  1  0
 13  6  2  0
 18 14  1  0
 23 19  1  0
 18  4  1  0
 12  8  2  0
  1 24  1  0
  1 25  1  0
  2 26  1  0
  3 27  1  0
  9 28  1  0
 15 29  1  0
 17 30  1  0
 20 31  1  0
 21 32  1  0
 22 33  1  0
M  END
