
     RDKit          3D

 36 38  0  0  0  0  0  0  0  0999 V2000
    7.2608    0.6764    1.3555 C   0  0  0  0  0  0  0  0  0  0  0  0
    5.8732    0.6836    1.0180 O   0  0  0  0  0  0  0  0  0  0  0  0
    5.5251   -0.2531    0.1002 C   0  0  0  0  0  0  0  0  0  0  0  0
    6.2843   -1.0514   -0.4270 O   0  0  0  0  0  0  0  0  0  0  0  0
    4.0675   -0.1866   -0.1943 C   0  0  0  0  0  0  0  0  0  0  0  0
    3.5335   -1.1106   -1.1022 C   0  0  0  0  0  0  0  0  0  0  0  0
    2.1710   -1.0912   -1.4138 C   0  0  0  0  0  0  0  0  0  0  0  0
    1.3230   -0.1446   -0.8252 C   0  0  0  0  0  0  0  0  0  0  0  0
   -0.1474   -0.1123   -1.1532 C   0  0  0  0  0  0  0  0  0  0  0  0
   -0.8794   -0.4980    0.0093 O   0  0  0  0  0  0  0  0  0  0  0  0
   -2.2333   -0.2456   -0.2078 N   0  0  0  0  0  0  0  0  0  0  0  0
   -3.0936   -1.2394   -0.5570 C   0  0  0  0  0  0  0  0  0  0  0  0
   -2.8829   -2.3795   -0.9238 O   0  0  0  0  0  0  0  0  0  0  0  0
   -4.4300   -0.6734   -0.3630 C   0  0  0  0  0  0  0  0  0  0  0  0
   -5.6749   -1.2137   -0.6184 C   0  0  0  0  0  0  0  0  0  0  0  0
   -6.7880   -0.4281   -0.3021 C   0  0  0  0  0  0  0  0  0  0  0  0
   -6.6327    0.8564    0.2613 C   0  0  0  0  0  0  0  0  0  0  0  0
   -5.3615    1.3795    0.5191 C   0  0  0  0  0  0  0  0  0  0  0  0
   -4.2774    0.5893    0.1912 C   0  0  0  0  0  0  0  0  0  0  0  0
   -2.8430    0.8340    0.3527 C   0  0  0  0  0  0  0  0  0  0  0  0
   -2.3750    1.8064    0.9139 O   0  0  0  0  0  0  0  0  0  0  0  0
    1.8593    0.7763    0.0870 C   0  0  0  0  0  0  0  0  0  0  0  0
    3.2216    0.7577    0.4006 C   0  0  0  0  0  0  0  0  0  0  0  0
    7.5483   -0.2904    1.7810 H   0  0  0  0  0  0  0  0  0  0  0  0
    7.4299    1.4500    2.1098 H   0  0  0  0  0  0  0  0  0  0  0  0
    7.8695    0.9107    0.4763 H   0  0  0  0  0  0  0  0  0  0  0  0
    4.1770   -1.8544   -1.5688 H   0  0  0  0  0  0  0  0  0  0  0  0
    1.7785   -1.8254   -2.1147 H   0  0  0  0  0  0  0  0  0  0  0  0
   -0.4215    0.9026   -1.4690 H   0  0  0  0  0  0  0  0  0  0  0  0
   -0.3802   -0.8022   -1.9730 H   0  0  0  0  0  0  0  0  0  0  0  0
   -5.7817   -2.2078   -1.0414 H   0  0  0  0  0  0  0  0  0  0  0  0
   -7.7897   -0.8137   -0.4862 H   0  0  0  0  0  0  0  0  0  0  0  0
   -7.5168    1.4442    0.5040 H   0  0  0  0  0  0  0  0  0  0  0  0
   -5.2296    2.3614    0.9623 H   0  0  0  0  0  0  0  0  0  0  0  0
    1.2110    1.5095    0.5658 H   0  0  0  0  0  0  0  0  0  0  0  0
    3.6049    1.4834    1.1134 H   0  0  0  0  0  0  0  0  0  0  0  0
  1  2  1  0
  2  3  1  0
  3  4  2  0
  3  5  1  0
  5  6  2  0
  6  7  1  0
  7  8  2  0
  8  9  1  0
  9 10  1  0
 10 11  1  0
 11 12  1  0
 12 13  2  0
 12 14  1  0
 14 15  2  0
 15 16  1  0
 16 17  2  0
 17 18  1  0
 18 19  2  0
 19 20  1  0
 20 21  2  0
  8 22  1  0
 22 23  2  0
 23  5  1  0
 20 11  1  0
 19 14  1  0
  1 24  1  0
  1 25  1  0
  1 26  1  0
  6 27  1  0
  7 28  1  0
  9 29  1  0
  9 30  1  0
 15 31  1  0
 16 32  1  0
 17 33  1  0
 18 34  1  0
 22 35  1  0
 23 36  1  0
M  END
