
     RDKit          3D

 36 37  0  0  0  0  0  0  0  0999 V2000
    7.5117    0.2945   -0.3047 C   0  0  0  0  0  0  0  0  0  0  0  0
    6.1124    0.1930   -0.0382 O   0  0  0  0  0  0  0  0  0  0  0  0
    5.3385    0.1836   -1.1519 C   0  0  0  0  0  0  0  0  0  0  0  0
    5.7413    0.2531   -2.3027 O   0  0  0  0  0  0  0  0  0  0  0  0
    3.8983    0.0756   -0.7929 C   0  0  0  0  0  0  0  0  0  0  0  0
    2.9571    0.0521   -1.8280 C   0  0  0  0  0  0  0  0  0  0  0  0
    1.5915   -0.0483   -1.5397 C   0  0  0  0  0  0  0  0  0  0  0  0
    1.1442   -0.1294   -0.2150 C   0  0  0  0  0  0  0  0  0  0  0  0
   -0.2481   -0.2235   -0.0107 N   0  0  0  0  0  0  0  0  0  0  0  0
   -0.9107   -0.3847    1.1934 C   0  0  0  0  0  0  0  0  0  0  0  0
   -0.4009   -0.5427    2.2961 O   0  0  0  0  0  0  0  0  0  0  0  0
   -2.3978   -0.4071    1.0950 C   0  0  0  0  0  0  0  0  0  0  0  0
   -3.1132   -1.2255    1.9753 C   0  0  0  0  0  0  0  0  0  0  0  0
   -4.5051   -1.2725    1.9079 C   0  0  0  0  0  0  0  0  0  0  0  0
   -5.1895   -0.4958    0.9686 C   0  0  0  0  0  0  0  0  0  0  0  0
   -4.4844    0.3394    0.1002 C   0  0  0  0  0  0  0  0  0  0  0  0
   -5.0313    1.1548   -0.8523 O   0  0  0  0  0  0  0  0  0  0  0  0
   -6.4514    1.1893   -0.9317 C   0  0  0  0  0  0  0  0  0  0  0  0
   -3.0886    0.3848    0.1692 C   0  0  0  0  0  0  0  0  0  0  0  0
    2.0852   -0.1016    0.8158 C   0  0  0  0  0  0  0  0  0  0  0  0
    3.4540   -0.0011    0.5315 C   0  0  0  0  0  0  0  0  0  0  0  0
    7.8540   -0.5647   -0.8900 H   0  0  0  0  0  0  0  0  0  0  0  0
    8.0397    0.2933    0.6529 H   0  0  0  0  0  0  0  0  0  0  0  0
    7.7364    1.2320   -0.8230 H   0  0  0  0  0  0  0  0  0  0  0  0
    3.2817    0.1120   -2.8654 H   0  0  0  0  0  0  0  0  0  0  0  0
    0.8881   -0.0638   -2.3685 H   0  0  0  0  0  0  0  0  0  0  0  0
   -0.8131   -0.2363   -0.8499 H   0  0  0  0  0  0  0  0  0  0  0  0
   -2.5863   -1.8283    2.7128 H   0  0  0  0  0  0  0  0  0  0  0  0
   -5.0583   -1.9132    2.5907 H   0  0  0  0  0  0  0  0  0  0  0  0
   -6.2727   -0.5608    0.9475 H   0  0  0  0  0  0  0  0  0  0  0  0
   -6.8539    0.2102   -1.2114 H   0  0  0  0  0  0  0  0  0  0  0  0
   -6.8913    1.5458    0.0056 H   0  0  0  0  0  0  0  0  0  0  0  0
   -6.7247    1.8987   -1.7188 H   0  0  0  0  0  0  0  0  0  0  0  0
   -2.5586    1.0689   -0.4880 H   0  0  0  0  0  0  0  0  0  0  0  0
    1.7887   -0.1526    1.8593 H   0  0  0  0  0  0  0  0  0  0  0  0
    4.1569    0.0166    1.3611 H   0  0  0  0  0  0  0  0  0  0  0  0
  1  2  1  0
  2  3  1  0
  3  4  2  0
  3  5  1  0
  5  6  2  0
  6  7  1  0
  7  8  2  0
  8  9  1  0
  9 10  1  0
 10 11  2  0
 10 12  1  0
 12 13  2  0
 13 14  1  0
 14 15  2  0
 15 16  1  0
 16 17  1  0
 17 18  1  0
 16 19  2  0
  8 20  1  0
 20 21  2  0
 21  5  1  0
 19 12  1  0
  1 22  1  0
  1 23  1  0
  1 24  1  0
  6 25  1  0
  7 26  1  0
  9 27  1  0
 13 28  1  0
 14 29  1  0
 15 30  1  0
 18 31  1  0
 18 32  1  0
 18 33  1  0
 19 34  1  0
 20 35  1  0
 21 36  1  0
M  END
