
     RDKit          3D

 27 28  0  0  0  0  0  0  0  0999 V2000
    4.4660    0.3778    0.4732 C   0  0  0  0  0  0  0  0  0  0  0  0
    3.4508    0.3310   -0.5307 O   0  0  0  0  0  0  0  0  0  0  0  0
    2.2120    0.0117   -0.0525 C   0  0  0  0  0  0  0  0  0  0  0  0
    1.9472   -0.1785    1.1278 O   0  0  0  0  0  0  0  0  0  0  0  0
    1.2127   -0.0094   -1.2030 C   0  0  0  0  0  0  0  0  0  0  0  0
   -0.0650   -0.5933   -0.8015 N   0  0  0  0  0  0  0  0  0  0  0  0
   -0.2118   -1.9690   -0.9206 C   0  0  0  0  0  0  0  0  0  0  0  0
    0.6531   -2.7029   -1.3998 O   0  0  0  0  0  0  0  0  0  0  0  0
   -1.4976   -2.5333   -0.3296 C   0  0  0  0  0  0  0  0  0  0  0  0
   -2.6471   -1.7076   -0.3281 O   0  0  0  0  0  0  0  0  0  0  0  0
   -2.3637   -0.4064   -0.0144 C   0  0  0  0  0  0  0  0  0  0  0  0
   -3.4361    0.3361    0.4864 C   0  0  0  0  0  0  0  0  0  0  0  0
   -3.2617    1.6781    0.8135 C   0  0  0  0  0  0  0  0  0  0  0  0
   -2.0160    2.2694    0.6277 C   0  0  0  0  0  0  0  0  0  0  0  0
   -1.7934    3.9275    1.0345 Cl  0  0  0  0  0  0  0  0  0  0  0  0
   -0.9448    1.5361    0.1085 C   0  0  0  0  0  0  0  0  0  0  0  0
   -1.1082    0.1855   -0.2276 C   0  0  0  0  0  0  0  0  0  0  0  0
    4.5639   -0.5944    0.9664 H   0  0  0  0  0  0  0  0  0  0  0  0
    5.4150    0.6148   -0.0157 H   0  0  0  0  0  0  0  0  0  0  0  0
    4.2461    1.1636    1.2025 H   0  0  0  0  0  0  0  0  0  0  0  0
    1.6430   -0.6148   -2.0092 H   0  0  0  0  0  0  0  0  0  0  0  0
    1.0694    1.0017   -1.5950 H   0  0  0  0  0  0  0  0  0  0  0  0
   -1.2870   -2.8516    0.6988 H   0  0  0  0  0  0  0  0  0  0  0  0
   -1.7539   -3.4296   -0.9053 H   0  0  0  0  0  0  0  0  0  0  0  0
   -4.4056   -0.1362    0.6245 H   0  0  0  0  0  0  0  0  0  0  0  0
   -4.0949    2.2517    1.2105 H   0  0  0  0  0  0  0  0  0  0  0  0
    0.0076    2.0421   -0.0062 H   0  0  0  0  0  0  0  0  0  0  0  0
  1  2  1  0
  2  3  1  0
  3  4  2  0
  3  5  1  0
  5  6  1  0
  6  7  1  0
  7  8  2  0
  7  9  1  0
  9 10  1  0
 10 11  1  0
 11 12  2  0
 12 13  1  0
 13 14  2  0
 14 15  1  0
 14 16  1  0
 16 17  2  0
 17  6  1  0
 17 11  1  0
  1 18  1  0
  1 19  1  0
  1 20  1  0
  5 21  1  0
  5 22  1  0
  9 23  1  0
  9 24  1  0
 12 25  1  0
 13 26  1  0
 16 27  1  0
M  END
