
     RDKit          3D

 34 36  0  0  0  0  0  0  0  0999 V2000
   -3.4828    1.5969    1.9048 C   0  0  0  0  0  0  0  0  0  0  0  0
   -2.7434    1.1959    0.7507 O   0  0  0  0  0  0  0  0  0  0  0  0
   -3.2427    0.0951    0.1221 C   0  0  0  0  0  0  0  0  0  0  0  0
   -4.2692   -0.4912    0.4462 O   0  0  0  0  0  0  0  0  0  0  0  0
   -2.4026   -0.2856   -1.0664 C   0  0  0  0  0  0  0  0  0  0  0  0
   -1.0240   -0.5749   -0.7067 N   0  0  0  0  0  0  0  0  0  0  0  0
    0.0464    0.2118   -1.0436 C   0  0  0  0  0  0  0  0  0  0  0  0
    1.2042   -0.3640   -0.5442 C   0  0  0  0  0  0  0  0  0  0  0  0
    2.5843    0.1271   -0.6680 C   0  0  0  0  0  0  0  0  0  0  0  0
    3.5356   -0.6503   -0.6020 O   0  0  0  0  0  0  0  0  0  0  0  0
    2.7867    1.5535   -0.8706 C   0  0  0  0  0  0  0  0  0  0  0  0
    3.9396    2.2372   -1.2237 C   0  0  0  0  0  0  0  0  0  0  0  0
    3.6164    3.6142   -1.2516 C   0  0  0  0  0  0  0  0  0  0  0  0
    2.2914    3.6988   -0.9008 C   0  0  0  0  0  0  0  0  0  0  0  0
    1.7825    2.4640   -0.6626 O   0  0  0  0  0  0  0  0  0  0  0  0
    0.7937   -1.5921    0.0857 C   0  0  0  0  0  0  0  0  0  0  0  0
    1.4879   -2.6274    0.7514 C   0  0  0  0  0  0  0  0  0  0  0  0
    0.7847   -3.7154    1.2783 C   0  0  0  0  0  0  0  0  0  0  0  0
   -0.5978   -3.7880    1.1544 C   0  0  0  0  0  0  0  0  0  0  0  0
   -1.3135   -2.7811    0.5016 C   0  0  0  0  0  0  0  0  0  0  0  0
   -0.5970   -1.6933   -0.0256 C   0  0  0  0  0  0  0  0  0  0  0  0
   -2.9776    2.4596    2.3477 H   0  0  0  0  0  0  0  0  0  0  0  0
   -4.4973    1.8954    1.6233 H   0  0  0  0  0  0  0  0  0  0  0  0
   -3.5060    0.7913    2.6455 H   0  0  0  0  0  0  0  0  0  0  0  0
   -2.8147   -1.1830   -1.5400 H   0  0  0  0  0  0  0  0  0  0  0  0
   -2.4242    0.5245   -1.8025 H   0  0  0  0  0  0  0  0  0  0  0  0
   -0.1005    1.1236   -1.6089 H   0  0  0  0  0  0  0  0  0  0  0  0
    4.8977    1.7785   -1.4308 H   0  0  0  0  0  0  0  0  0  0  0  0
    4.2701    4.4421   -1.4885 H   0  0  0  0  0  0  0  0  0  0  0  0
    1.6006    4.5213   -0.7762 H   0  0  0  0  0  0  0  0  0  0  0  0
    2.5696   -2.5849    0.8545 H   0  0  0  0  0  0  0  0  0  0  0  0
    1.3269   -4.5081    1.7876 H   0  0  0  0  0  0  0  0  0  0  0  0
   -1.1311   -4.6397    1.5706 H   0  0  0  0  0  0  0  0  0  0  0  0
   -2.3939   -2.8518    0.4143 H   0  0  0  0  0  0  0  0  0  0  0  0
  1  2  1  0
  2  3  1  0
  3  4  2  0
  3  5  1  0
  5  6  1  0
  6  7  1  0
  7  8  2  0
  8  9  1  0
  9 10  2  0
  9 11  1  0
 11 12  2  0
 12 13  1  0
 13 14  2  0
 14 15  1  0
  8 16  1  0
 16 17  2  0
 17 18  1  0
 18 19  2  0
 19 20  1  0
 20 21  2  0
 21  6  1  0
 15 11  1  0
 21 16  1  0
  1 22  1  0
  1 23  1  0
  1 24  1  0
  5 25  1  0
  5 26  1  0
  7 27  1  0
 12 28  1  0
 13 29  1  0
 14 30  1  0
 17 31  1  0
 18 32  1  0
 19 33  1  0
 20 34  1  0
M  END
