
     RDKit          3D

 36 36  0  0  0  0  0  0  0  0999 V2000
    6.0598    1.0636   -0.2060 C   0  0  0  0  0  0  0  0  0  0  0  0
    5.4787   -0.1335   -0.7256 O   0  0  0  0  0  0  0  0  0  0  0  0
    4.1666   -0.3105   -0.3943 C   0  0  0  0  0  0  0  0  0  0  0  0
    3.5084    0.4742    0.2778 O   0  0  0  0  0  0  0  0  0  0  0  0
    3.6392   -1.6017   -0.9666 C   0  0  0  0  0  0  0  0  0  0  0  0
    3.2250   -2.8180    0.3412 S   0  0  0  0  0  0  0  0  0  0  0  0
    1.8371   -1.9599    1.1886 C   0  0  0  0  0  0  0  0  0  0  0  0
    1.2697   -2.8786    2.2683 C   0  0  0  0  0  0  0  0  0  0  0  0
    0.7134   -1.5348    0.2323 C   0  0  0  0  0  0  0  0  0  0  0  0
    0.5533   -2.0414   -0.8752 O   0  0  0  0  0  0  0  0  0  0  0  0
   -0.0834   -0.5445    0.7776 N   0  0  0  0  0  0  0  0  0  0  0  0
   -1.2095   -0.0929    0.1448 C   0  0  0  0  0  0  0  0  0  0  0  0
   -1.7503   -0.4547   -0.9918 N   0  0  0  0  0  0  0  0  0  0  0  0
   -2.9168    0.2374   -1.2497 N   0  0  0  0  0  0  0  0  0  0  0  0
   -3.2095    1.1005   -0.3002 C   0  0  0  0  0  0  0  0  0  0  0  0
   -4.4260    1.9834   -0.2801 C   0  0  0  0  0  0  0  0  0  0  0  0
   -4.5740    2.7363   -1.6049 C   0  0  0  0  0  0  0  0  0  0  0  0
   -5.6739    1.1527    0.0120 C   0  0  0  0  0  0  0  0  0  0  0  0
   -2.0635    1.1170    0.9928 S   0  0  0  0  0  0  0  0  0  0  0  0
    7.1402    1.0232   -0.3716 H   0  0  0  0  0  0  0  0  0  0  0  0
    5.8700    1.1401    0.8757 H   0  0  0  0  0  0  0  0  0  0  0  0
    5.6540    1.9306   -0.7280 H   0  0  0  0  0  0  0  0  0  0  0  0
    4.4090   -2.0490   -1.5983 H   0  0  0  0  0  0  0  0  0  0  0  0
    2.7923   -1.3825   -1.6190 H   0  0  0  0  0  0  0  0  0  0  0  0
    2.2444   -1.0772    1.6834 H   0  0  0  0  0  0  0  0  0  0  0  0
    0.4909   -2.3649    2.8450 H   0  0  0  0  0  0  0  0  0  0  0  0
    0.8133   -3.7794    1.8454 H   0  0  0  0  0  0  0  0  0  0  0  0
    2.0455   -3.1812    2.9741 H   0  0  0  0  0  0  0  0  0  0  0  0
    0.1474   -0.1063    1.6496 H   0  0  0  0  0  0  0  0  0  0  0  0
   -4.3265    2.7341    0.5134 H   0  0  0  0  0  0  0  0  0  0  0  0
   -3.6808    3.3312   -1.8169 H   0  0  0  0  0  0  0  0  0  0  0  0
   -5.4309    3.4129   -1.5645 H   0  0  0  0  0  0  0  0  0  0  0  0
   -4.7266    2.0536   -2.4473 H   0  0  0  0  0  0  0  0  0  0  0  0
   -5.5923    0.6457    0.9770 H   0  0  0  0  0  0  0  0  0  0  0  0
   -5.8299    0.3844   -0.7518 H   0  0  0  0  0  0  0  0  0  0  0  0
   -6.5644    1.7900    0.0392 H   0  0  0  0  0  0  0  0  0  0  0  0
  1  2  1  0
  2  3  1  0
  3  4  2  0
  3  5  1  0
  5  6  1  0
  6  7  1  0
  7  8  1  0
  7  9  1  0
  9 10  2  0
  9 11  1  0
 11 12  1  0
 12 13  2  0
 13 14  1  0
 14 15  2  0
 15 16  1  0
 16 17  1  0
 16 18  1  0
 15 19  1  0
 19 12  1  0
  1 20  1  0
  1 21  1  0
  1 22  1  0
  5 23  1  0
  5 24  1  0
  7 25  1  0
  8 26  1  0
  8 27  1  0
  8 28  1  0
 11 29  1  0
 16 30  1  0
 17 31  1  0
 17 32  1  0
 17 33  1  0
 18 34  1  0
 18 35  1  0
 18 36  1  0
M  END
