
     RDKit          3D

 49 56  0  0  0  0  0  0  0  0999 V2000
   -4.6882    2.3887   -1.9733 Si  0  0  0  0  0  4  0  0  0  0  0  0
   -6.2729    2.0106   -1.0552 C   0  0  0  0  0  0  0  0  0  0  0  0
   -6.1201    1.0565   -0.1195 C   0  0  0  0  0  0  0  0  0  0  0  0
   -4.7441    0.5115   -0.0113 C   0  0  0  0  0  0  0  0  0  0  0  0
   -3.8435    1.1201   -0.9131 C   0  0  0  0  0  0  0  0  0  0  0  0
   -2.4877    0.7667   -0.9436 C   0  0  0  0  0  0  0  0  0  0  0  0
   -1.2786    1.3066   -2.0554 S   0  0  0  0  0  0  0  0  0  0  0  0
   -0.0079    0.5345   -1.2090 C   0  0  0  0  0  0  0  0  0  0  0  0
    1.3821    0.5656   -1.5378 C   0  0  0  0  0  0  0  0  0  0  0  0
    2.3702    0.0087   -0.7006 C   0  0  0  0  0  0  0  0  0  0  0  0
    3.7819    0.0442   -1.0019 C   0  0  0  0  0  0  0  0  0  0  0  0
    4.4212   -0.7583   -1.9846 C   0  0  0  0  0  0  0  0  0  0  0  0
    5.8305   -0.7082   -2.2901 C   0  0  0  0  0  0  0  0  0  0  0  0
    6.7542    0.1531   -1.6534 C   0  0  0  0  0  0  0  0  0  0  0  0
    6.1059    0.9330   -0.7063 C   0  0  0  0  0  0  0  0  0  0  0  0
    6.6659    1.8874    0.0994 C   0  0  0  0  0  0  0  0  0  0  0  0
    5.6961    2.4425    0.8904 O   0  0  0  0  0  0  0  0  0  0  0  0
    4.5100    1.8328    0.5791 C   0  0  0  0  0  0  0  0  0  0  0  0
    4.7150    0.8896   -0.3954 C   0  0  0  0  0  0  0  0  0  0  0  0
    1.8118   -0.5099    0.4672 C   0  0  0  0  0  0  0  0  0  0  0  0
    2.5168   -1.0333    1.5310 C   0  0  0  0  0  0  0  0  0  0  0  0
    1.6158   -1.3341    2.5315 N   0  0  0  0  0  0  0  0  0  0  0  0
    0.3366   -1.0197    2.1246 C   0  0  0  0  0  0  0  0  0  0  0  0
    0.4513   -0.5867    0.8345 C   0  0  0  0  0  0  0  0  0  0  0  0
   -0.5410   -0.1055   -0.0996 C   0  0  0  0  0  0  0  0  0  0  0  0
   -1.9759   -0.1649   -0.0183 C   0  0  0  0  0  0  0  0  0  0  0  0
   -2.9421   -0.9152    0.7641 C   0  0  0  0  0  0  0  0  0  0  0  0
   -2.5629   -2.0942    1.4454 C   0  0  0  0  0  0  0  0  0  0  0  0
   -3.4560   -2.8090    2.2451 C   0  0  0  0  0  0  0  0  0  0  0  0
   -4.7671   -2.3792    2.3647 C   0  0  0  0  0  0  0  0  0  0  0  0
   -5.1955   -1.2652    1.6438 C   0  0  0  0  0  0  0  0  0  0  0  0
   -4.3158   -0.5378    0.8082 C   0  0  0  0  0  0  0  0  0  0  0  0
   -4.2323    3.7785   -1.7199 H   0  0  0  0  0  0  0  0  0  0  0  0
   -4.7843    2.0039   -3.4038 H   0  0  0  0  0  0  0  0  0  0  0  0
   -7.1881    2.5321   -1.2898 H   0  0  0  0  0  0  0  0  0  0  0  0
   -6.9290    0.7113    0.5084 H   0  0  0  0  0  0  0  0  0  0  0  0
    1.6913    1.0723   -2.4517 H   0  0  0  0  0  0  0  0  0  0  0  0
    3.8119   -1.4684   -2.5470 H   0  0  0  0  0  0  0  0  0  0  0  0
    6.2030   -1.3802   -3.0647 H   0  0  0  0  0  0  0  0  0  0  0  0
    7.8074    0.1844   -1.8918 H   0  0  0  0  0  0  0  0  0  0  0  0
    7.6619    2.2828    0.2382 H   0  0  0  0  0  0  0  0  0  0  0  0
    3.6485    2.1808    1.1318 H   0  0  0  0  0  0  0  0  0  0  0  0
    3.5758   -1.1868    1.6927 H   0  0  0  0  0  0  0  0  0  0  0  0
    1.8635   -1.6911    3.4455 H   0  0  0  0  0  0  0  0  0  0  0  0
   -0.4913   -1.1176    2.8116 H   0  0  0  0  0  0  0  0  0  0  0  0
   -1.5671   -2.5082    1.3178 H   0  0  0  0  0  0  0  0  0  0  0  0
   -3.1252   -3.7071    2.7596 H   0  0  0  0  0  0  0  0  0  0  0  0
   -5.4690   -2.9282    2.9865 H   0  0  0  0  0  0  0  0  0  0  0  0
   -6.2433   -0.9894    1.7242 H   0  0  0  0  0  0  0  0  0  0  0  0
  1  2  1  0
  2  3  2  0
  3  4  1  0
  4  5  2  0
  5  6  1  0
  6  7  1  0
  7  8  1  0
  8  9  1  0
  9 10  2  0
 10 11  1  0
 11 12  2  0
 12 13  1  0
 13 14  2  0
 14 15  1  0
 15 16  2  0
 16 17  1  0
 17 18  1  0
 18 19  2  0
 10 20  1  0
 20 21  2  0
 21 22  1  0
 22 23  1  0
 23 24  2  0
 24 25  1  0
 25 26  1  0
 26 27  1  0
 27 28  2  0
 28 29  1  0
 29 30  2  0
 30 31  1  0
 31 32  2  0
  5  1  1  0
 26  6  2  0
 32 27  1  0
 32  4  1  0
 25  8  2  0
 19 11  1  0
 24 20  1  0
 19 15  1  0
  1 33  1  0
  1 34  1  0
  2 35  1  0
  3 36  1  0
  9 37  1  0
 12 38  1  0
 13 39  1  0
 14 40  1  0
 16 41  1  0
 18 42  1  0
 21 43  1  0
 22 44  1  0
 23 45  1  0
 28 46  1  0
 29 47  1  0
 30 48  1  0
 31 49  1  0
M  END
