
     RDKit          3D

 35 37  0  0  0  0  0  0  0  0999 V2000
   -6.6879   -0.4798    0.1512 C   0  0  0  0  0  0  0  0  0  0  0  0
   -5.5807   -1.3006   -0.1985 O   0  0  0  0  0  0  0  0  0  0  0  0
   -4.3382   -0.7401   -0.0924 C   0  0  0  0  0  0  0  0  0  0  0  0
   -4.0546    0.5560    0.3341 C   0  0  0  0  0  0  0  0  0  0  0  0
   -2.7279    1.0026    0.3958 C   0  0  0  0  0  0  0  0  0  0  0  0
   -3.2844   -1.5826   -0.4501 C   0  0  0  0  0  0  0  0  0  0  0  0
   -1.9598   -1.1377   -0.3892 C   0  0  0  0  0  0  0  0  0  0  0  0
   -1.6679    0.1669    0.0223 C   0  0  0  0  0  0  0  0  0  0  0  0
   -0.2927    0.6737    0.1322 C   0  0  0  0  0  0  0  0  0  0  0  0
    0.7093    0.3194   -0.6877 C   0  0  0  0  0  0  0  0  0  0  0  0
    2.0686    0.8604   -0.5328 C   0  0  0  0  0  0  0  0  0  0  0  0
    2.2762    2.2144   -0.7992 C   0  0  0  0  0  0  0  0  0  0  0  0
    3.5543    2.7167   -0.6718 C   0  0  0  0  0  0  0  0  0  0  0  0
    4.6189    1.9754   -0.3055 N   0  0  0  0  0  0  0  0  0  0  0  0
    4.4261    0.6706   -0.0486 C   0  0  0  0  0  0  0  0  0  0  0  0
    5.5221   -0.0943    0.3288 C   0  0  0  0  0  0  0  0  0  0  0  0
    5.4108   -1.4564    0.6173 C   0  0  0  0  0  0  0  0  0  0  0  0
    4.1737   -2.0781    0.5304 C   0  0  0  0  0  0  0  0  0  0  0  0
    3.0568   -1.3341    0.1533 C   0  0  0  0  0  0  0  0  0  0  0  0
    3.1618    0.0472   -0.1451 C   0  0  0  0  0  0  0  0  0  0  0  0
   -6.6435   -0.1851    1.2049 H   0  0  0  0  0  0  0  0  0  0  0  0
   -7.5989   -1.0689    0.0087 H   0  0  0  0  0  0  0  0  0  0  0  0
   -6.7522    0.3963   -0.5026 H   0  0  0  0  0  0  0  0  0  0  0  0
   -4.8379    1.2464    0.6280 H   0  0  0  0  0  0  0  0  0  0  0  0
   -2.5336    2.0185    0.7334 H   0  0  0  0  0  0  0  0  0  0  0  0
   -3.4952   -2.5987   -0.7749 H   0  0  0  0  0  0  0  0  0  0  0  0
   -1.1664   -1.8302   -0.6572 H   0  0  0  0  0  0  0  0  0  0  0  0
   -0.1160    1.3873    0.9348 H   0  0  0  0  0  0  0  0  0  0  0  0
    0.5730   -0.3824   -1.5056 H   0  0  0  0  0  0  0  0  0  0  0  0
    1.4643    2.8644   -1.1072 H   0  0  0  0  0  0  0  0  0  0  0  0
    3.7667    3.7633   -0.8700 H   0  0  0  0  0  0  0  0  0  0  0  0
    6.4947    0.3874    0.4014 H   0  0  0  0  0  0  0  0  0  0  0  0
    6.2909   -2.0223    0.9105 H   0  0  0  0  0  0  0  0  0  0  0  0
    4.0746   -3.1365    0.7568 H   0  0  0  0  0  0  0  0  0  0  0  0
    2.0950   -1.8389    0.0987 H   0  0  0  0  0  0  0  0  0  0  0  0
  1  2  1  0
  2  3  1  0
  3  4  2  0
  4  5  1  0
  3  6  1  0
  6  7  2  0
  7  8  1  0
  8  9  1  0
  9 10  2  0
 10 11  1  0
 11 12  2  0
 12 13  1  0
 13 14  2  0
 14 15  1  0
 15 16  2  0
 16 17  1  0
 17 18  2  0
 18 19  1  0
 19 20  2  0
  8  5  2  0
 20 11  1  0
 20 15  1  0
  1 21  1  0
  1 22  1  0
  1 23  1  0
  4 24  1  0
  5 25  1  0
  6 26  1  0
  7 27  1  0
  9 28  1  0
 10 29  1  0
 12 30  1  0
 13 31  1  0
 16 32  1  0
 17 33  1  0
 18 34  1  0
 19 35  1  0
M  END
