
     RDKit          3D

 33 35  0  0  0  0  0  0  0  0999 V2000
    3.9732    4.0712   -3.0197 C   0  0  0  0  0  0  0  0  0  0  0  0
    3.9018    4.0074   -1.6007 O   0  0  0  0  0  0  0  0  0  0  0  0
    3.0235    3.1066   -1.0664 C   0  0  0  0  0  0  0  0  0  0  0  0
    2.9892    3.0808    0.3286 C   0  0  0  0  0  0  0  0  0  0  0  0
    2.1352    2.2060    1.0105 C   0  0  0  0  0  0  0  0  0  0  0  0
    2.1927    2.2460   -1.7798 C   0  0  0  0  0  0  0  0  0  0  0  0
    1.3369    1.3694   -1.0991 C   0  0  0  0  0  0  0  0  0  0  0  0
    1.2954    1.3362    0.3034 C   0  0  0  0  0  0  0  0  0  0  0  0
    0.3951    0.4138    0.9973 C   0  0  0  0  0  0  0  0  0  0  0  0
   -0.4202   -0.4306    0.3437 N   0  0  0  0  0  0  0  0  0  0  0  0
   -1.0612   -1.0838    1.3458 N   0  0  0  0  0  0  0  0  0  0  0  0
   -2.0336   -2.0873    1.0885 C   0  0  0  0  0  0  0  0  0  0  0  0
   -2.6727   -2.7379    2.1544 C   0  0  0  0  0  0  0  0  0  0  0  0
   -3.6295   -3.7253    1.8983 C   0  0  0  0  0  0  0  0  0  0  0  0
   -3.9530   -4.0679    0.5807 C   0  0  0  0  0  0  0  0  0  0  0  0
   -4.9343   -5.0806    0.3209 C   0  0  0  0  0  0  0  0  0  0  0  0
   -5.7285   -5.9002    0.1099 N   0  0  0  0  0  0  0  0  0  0  0  0
   -3.3156   -3.4189   -0.4827 C   0  0  0  0  0  0  0  0  0  0  0  0
   -2.3580   -2.4308   -0.2323 C   0  0  0  0  0  0  0  0  0  0  0  0
   -0.7180   -0.7213    2.6075 N   0  0  0  0  0  0  0  0  0  0  0  0
    0.1984    0.2210    2.3823 C   0  0  0  0  0  0  0  0  0  0  0  0
    4.7141    4.8322   -3.2831 H   0  0  0  0  0  0  0  0  0  0  0  0
    3.0139    4.3773   -3.4498 H   0  0  0  0  0  0  0  0  0  0  0  0
    4.3103    3.1184   -3.4412 H   0  0  0  0  0  0  0  0  0  0  0  0
    3.6354    3.7501    0.8925 H   0  0  0  0  0  0  0  0  0  0  0  0
    2.1480    2.2266    2.0965 H   0  0  0  0  0  0  0  0  0  0  0  0
    2.1812    2.2268   -2.8644 H   0  0  0  0  0  0  0  0  0  0  0  0
    0.6981    0.7075   -1.6817 H   0  0  0  0  0  0  0  0  0  0  0  0
   -2.4362   -2.4870    3.1875 H   0  0  0  0  0  0  0  0  0  0  0  0
   -4.1183   -4.2229    2.7345 H   0  0  0  0  0  0  0  0  0  0  0  0
   -3.5586   -3.6766   -1.5123 H   0  0  0  0  0  0  0  0  0  0  0  0
   -1.8744   -1.9387   -1.0748 H   0  0  0  0  0  0  0  0  0  0  0  0
    0.6697    0.7124    3.2217 H   0  0  0  0  0  0  0  0  0  0  0  0
  1  2  1  0
  2  3  1  0
  3  4  2  0
  4  5  1  0
  3  6  1  0
  6  7  2  0
  7  8  1  0
  8  9  1  0
  9 10  2  0
 10 11  1  0
 11 12  1  0
 12 13  2  0
 13 14  1  0
 14 15  2  0
 15 16  1  0
 16 17  3  0
 15 18  1  0
 18 19  2  0
 11 20  1  0
 20 21  2  0
  8  5  2  0
 21  9  1  0
 19 12  1  0
  1 22  1  0
  1 23  1  0
  1 24  1  0
  4 25  1  0
  5 26  1  0
  6 27  1  0
  7 28  1  0
 13 29  1  0
 14 30  1  0
 18 31  1  0
 19 32  1  0
 21 33  1  0
M  END
