
     RDKit          3D

 48 55  0  0  0  0  0  0  0  0999 V2000
    5.0946    2.1581    2.2504 Si  0  0  0  0  0  4  0  0  0  0  0  0
    6.7078    1.5608    1.4457 C   0  0  0  0  0  0  0  0  0  0  0  0
    6.5132    0.6349    0.4871 C   0  0  0  0  0  0  0  0  0  0  0  0
    5.1015    0.3180    0.3105 C   0  0  0  0  0  0  0  0  0  0  0  0
    4.1690    0.9947    1.1310 C   0  0  0  0  0  0  0  0  0  0  0  0
    2.7663    0.8036    1.0390 C   0  0  0  0  0  0  0  0  0  0  0  0
    1.4992    1.6397    1.8373 S   0  0  0  0  0  0  0  0  0  0  0  0
    0.2658    0.7349    1.0458 C   0  0  0  0  0  0  0  0  0  0  0  0
   -1.1119    0.9927    1.1502 C   0  0  0  0  0  0  0  0  0  0  0  0
   -2.0400    0.1449    0.5311 C   0  0  0  0  0  0  0  0  0  0  0  0
   -3.4551    0.4993    0.6320 C   0  0  0  0  0  0  0  0  0  0  0  0
   -4.2665    0.2026    1.7583 C   0  0  0  0  0  0  0  0  0  0  0  0
   -5.6520    0.5512    1.8668 C   0  0  0  0  0  0  0  0  0  0  0  0
   -6.3732    1.2350    0.8651 C   0  0  0  0  0  0  0  0  0  0  0  0
   -5.5746    1.5299   -0.2397 C   0  0  0  0  0  0  0  0  0  0  0  0
   -6.0564    2.1937   -1.3406 C   0  0  0  0  0  0  0  0  0  0  0  0
   -4.8302    2.4045   -2.5267 S   0  0  0  0  0  0  0  0  0  0  0  0
   -3.6523    1.6053   -1.5611 C   0  0  0  0  0  0  0  0  0  0  0  0
   -4.1788    1.1841   -0.3615 C   0  0  0  0  0  0  0  0  0  0  0  0
   -1.5883   -1.0368   -0.0949 C   0  0  0  0  0  0  0  0  0  0  0  0
   -2.4821   -1.9944   -0.6325 C   0  0  0  0  0  0  0  0  0  0  0  0
   -2.0383   -3.2100   -1.1519 C   0  0  0  0  0  0  0  0  0  0  0  0
   -0.6883   -3.5149   -1.1207 C   0  0  0  0  0  0  0  0  0  0  0  0
    0.2195   -2.5822   -0.6189 C   0  0  0  0  0  0  0  0  0  0  0  0
   -0.1908   -1.3086   -0.1621 C   0  0  0  0  0  0  0  0  0  0  0  0
    0.7709   -0.3336    0.2967 C   0  0  0  0  0  0  0  0  0  0  0  0
    2.1905   -0.1383    0.1803 C   0  0  0  0  0  0  0  0  0  0  0  0
    3.1138   -0.7635   -0.7528 C   0  0  0  0  0  0  0  0  0  0  0  0
    2.9266   -1.5112   -1.8768 C   0  0  0  0  0  0  0  0  0  0  0  0
    4.1549   -1.8160   -2.4059 O   0  0  0  0  0  0  0  0  0  0  0  0
    5.1010   -1.2006   -1.6291 C   0  0  0  0  0  0  0  0  0  0  0  0
    4.4932   -0.5038   -0.6136 C   0  0  0  0  0  0  0  0  0  0  0  0
    4.8502    3.5918    1.9548 H   0  0  0  0  0  0  0  0  0  0  0  0
    5.0391    1.7750    3.6831 H   0  0  0  0  0  0  0  0  0  0  0  0
    7.6553    1.9657    1.7665 H   0  0  0  0  0  0  0  0  0  0  0  0
    7.2975    0.1717   -0.0943 H   0  0  0  0  0  0  0  0  0  0  0  0
   -1.4568    1.8632    1.7059 H   0  0  0  0  0  0  0  0  0  0  0  0
   -3.8133   -0.3286    2.5973 H   0  0  0  0  0  0  0  0  0  0  0  0
   -6.1778    0.2696    2.7801 H   0  0  0  0  0  0  0  0  0  0  0  0
   -7.4198    1.4895    0.9667 H   0  0  0  0  0  0  0  0  0  0  0  0
   -7.0533    2.5699   -1.5246 H   0  0  0  0  0  0  0  0  0  0  0  0
   -2.6447    1.4932   -1.9381 H   0  0  0  0  0  0  0  0  0  0  0  0
   -3.5560   -1.8139   -0.6295 H   0  0  0  0  0  0  0  0  0  0  0  0
   -2.7541   -3.9278   -1.5437 H   0  0  0  0  0  0  0  0  0  0  0  0
   -0.3375   -4.4819   -1.4720 H   0  0  0  0  0  0  0  0  0  0  0  0
    1.2559   -2.8944   -0.5360 H   0  0  0  0  0  0  0  0  0  0  0  0
    2.0839   -1.8821   -2.4410 H   0  0  0  0  0  0  0  0  0  0  0  0
    6.1224   -1.3346   -1.9563 H   0  0  0  0  0  0  0  0  0  0  0  0
  1  2  1  0
  2  3  2  0
  3  4  1  0
  4  5  2  0
  5  6  1  0
  6  7  1  0
  7  8  1  0
  8  9  2  0
  9 10  1  0
 10 11  1  0
 11 12  2  0
 12 13  1  0
 13 14  2  0
 14 15  1  0
 15 16  2  0
 16 17  1  0
 17 18  1  0
 18 19  2  0
 10 20  2  0
 20 21  1  0
 21 22  2  0
 22 23  1  0
 23 24  2  0
 24 25  1  0
 25 26  2  0
 26 27  1  0
 27 28  1  0
 28 29  2  0
 29 30  1  0
 30 31  1  0
 31 32  2  0
  5  1  1  0
 27  6  2  0
 32 28  1  0
 32  4  1  0
 26  8  1  0
 19 11  1  0
 25 20  1  0
 19 15  1  0
  1 33  1  0
  1 34  1  0
  2 35  1  0
  3 36  1  0
  9 37  1  0
 12 38  1  0
 13 39  1  0
 14 40  1  0
 16 41  1  0
 18 42  1  0
 21 43  1  0
 22 44  1  0
 23 45  1  0
 24 46  1  0
 29 47  1  0
 31 48  1  0
M  END
