
     RDKit          3D

 32 34  0  0  0  0  0  0  0  0999 V2000
   -6.1856    0.9193    0.1724 C   0  0  0  0  0  0  0  0  0  0  0  0
   -5.5988   -0.3188   -0.2083 O   0  0  0  0  0  0  0  0  0  0  0  0
   -4.2328   -0.3837   -0.2026 C   0  0  0  0  0  0  0  0  0  0  0  0
   -3.7065   -1.6211   -0.5843 C   0  0  0  0  0  0  0  0  0  0  0  0
   -2.3252   -1.8306   -0.6241 C   0  0  0  0  0  0  0  0  0  0  0  0
   -3.3631    0.6521    0.1420 C   0  0  0  0  0  0  0  0  0  0  0  0
   -1.9775    0.4519    0.1052 C   0  0  0  0  0  0  0  0  0  0  0  0
   -1.4541   -0.7906   -0.2782 C   0  0  0  0  0  0  0  0  0  0  0  0
   -0.0493   -0.9930   -0.3153 N   0  0  0  0  0  0  0  0  0  0  0  0
    0.8282   -0.0095    0.0129 N   0  0  0  0  0  0  0  0  0  0  0  0
    2.0258   -0.5960   -0.1498 C   0  0  0  0  0  0  0  0  0  0  0  0
    1.8037   -1.9241   -0.5745 C   0  0  0  0  0  0  0  0  0  0  0  0
    0.4995   -2.1803   -0.6807 N   0  0  0  0  0  0  0  0  0  0  0  0
    3.2878    0.1047    0.0962 C   0  0  0  0  0  0  0  0  0  0  0  0
    3.2856    1.4434    0.5200 C   0  0  0  0  0  0  0  0  0  0  0  0
    4.4830    2.1235    0.7582 C   0  0  0  0  0  0  0  0  0  0  0  0
    5.7008    1.4741    0.5760 C   0  0  0  0  0  0  0  0  0  0  0  0
    5.7221    0.1463    0.1560 C   0  0  0  0  0  0  0  0  0  0  0  0
    4.5239   -0.5351   -0.0827 C   0  0  0  0  0  0  0  0  0  0  0  0
   -5.9313    1.1753    1.2063 H   0  0  0  0  0  0  0  0  0  0  0  0
   -5.8983    1.7207   -0.5163 H   0  0  0  0  0  0  0  0  0  0  0  0
   -7.2724    0.8056    0.1155 H   0  0  0  0  0  0  0  0  0  0  0  0
   -4.3801   -2.4315   -0.8538 H   0  0  0  0  0  0  0  0  0  0  0  0
   -1.9482   -2.8057   -0.9256 H   0  0  0  0  0  0  0  0  0  0  0  0
   -3.7272    1.6285    0.4441 H   0  0  0  0  0  0  0  0  0  0  0  0
   -1.3201    1.2755    0.3785 H   0  0  0  0  0  0  0  0  0  0  0  0
    2.5158   -2.7028   -0.8074 H   0  0  0  0  0  0  0  0  0  0  0  0
    2.3449    1.9708    0.6689 H   0  0  0  0  0  0  0  0  0  0  0  0
    4.4608    3.1597    1.0859 H   0  0  0  0  0  0  0  0  0  0  0  0
    6.6325    2.0026    0.7612 H   0  0  0  0  0  0  0  0  0  0  0  0
    6.6730   -0.3613    0.0136 H   0  0  0  0  0  0  0  0  0  0  0  0
    4.5830   -1.5697   -0.4090 H   0  0  0  0  0  0  0  0  0  0  0  0
  1  2  1  0
  2  3  1  0
  3  4  2  0
  4  5  1  0
  3  6  1  0
  6  7  2  0
  7  8  1  0
  8  9  1  0
  9 10  1  0
 10 11  2  0
 11 12  1  0
 12 13  2  0
 11 14  1  0
 14 15  2  0
 15 16  1  0
 16 17  2  0
 17 18  1  0
 18 19  2  0
  8  5  2  0
 13  9  1  0
 19 14  1  0
  1 20  1  0
  1 21  1  0
  1 22  1  0
  4 23  1  0
  5 24  1  0
  6 25  1  0
  7 26  1  0
 12 27  1  0
 15 28  1  0
 16 29  1  0
 17 30  1  0
 18 31  1  0
 19 32  1  0
M  END
