
     RDKit          3D

 41 44  0  0  0  0  0  0  0  0999 V2000
    7.5614   -1.3279    0.2885 C   0  0  0  0  0  0  0  0  0  0  0  0
    6.6776   -0.8281   -0.7070 O   0  0  0  0  0  0  0  0  0  0  0  0
    5.3881   -0.5816   -0.3225 C   0  0  0  0  0  0  0  0  0  0  0  0
    4.5602   -0.0918   -1.3369 C   0  0  0  0  0  0  0  0  0  0  0  0
    3.2094    0.2087   -1.0951 C   0  0  0  0  0  0  0  0  0  0  0  0
    2.3761    0.7056   -2.1078 C   0  0  0  0  0  0  0  0  0  0  0  0
    1.0343    0.9993   -1.8488 C   0  0  0  0  0  0  0  0  0  0  0  0
    2.6793    0.0103    0.1971 C   0  0  0  0  0  0  0  0  0  0  0  0
    3.5184   -0.4798    1.2099 C   0  0  0  0  0  0  0  0  0  0  0  0
    4.8621   -0.7742    0.9527 C   0  0  0  0  0  0  0  0  0  0  0  0
    1.3269    0.3098    0.4421 C   0  0  0  0  0  0  0  0  0  0  0  0
    0.4932    0.7917   -0.5767 C   0  0  0  0  0  0  0  0  0  0  0  0
   -0.9147    1.1384   -0.3399 C   0  0  0  0  0  0  0  0  0  0  0  0
   -1.7350    0.4270    0.4495 C   0  0  0  0  0  0  0  0  0  0  0  0
   -3.1476    0.7921    0.6465 C   0  0  0  0  0  0  0  0  0  0  0  0
   -3.4409    2.0255    1.2309 C   0  0  0  0  0  0  0  0  0  0  0  0
   -4.7644    2.3525    1.4401 C   0  0  0  0  0  0  0  0  0  0  0  0
   -5.7961    1.5480    1.1163 N   0  0  0  0  0  0  0  0  0  0  0  0
   -5.5218    0.3582    0.5559 C   0  0  0  0  0  0  0  0  0  0  0  0
   -6.5850   -0.4708    0.2225 C   0  0  0  0  0  0  0  0  0  0  0  0
   -6.3921   -1.7222   -0.3669 C   0  0  0  0  0  0  0  0  0  0  0  0
   -5.1049   -2.1635   -0.6356 C   0  0  0  0  0  0  0  0  0  0  0  0
   -4.0192   -1.3516   -0.3106 C   0  0  0  0  0  0  0  0  0  0  0  0
   -4.2052   -0.0825    0.2925 C   0  0  0  0  0  0  0  0  0  0  0  0
    8.5418   -1.4705   -0.1761 H   0  0  0  0  0  0  0  0  0  0  0  0
    7.6819   -0.6096    1.1062 H   0  0  0  0  0  0  0  0  0  0  0  0
    7.2255   -2.3009    0.6622 H   0  0  0  0  0  0  0  0  0  0  0  0
    4.9827    0.0560   -2.3286 H   0  0  0  0  0  0  0  0  0  0  0  0
    2.7666    0.8697   -3.1099 H   0  0  0  0  0  0  0  0  0  0  0  0
    0.4149    1.3830   -2.6566 H   0  0  0  0  0  0  0  0  0  0  0  0
    3.1307   -0.6385    2.2140 H   0  0  0  0  0  0  0  0  0  0  0  0
    5.4661   -1.1511    1.7710 H   0  0  0  0  0  0  0  0  0  0  0  0
    0.9270    0.1736    1.4446 H   0  0  0  0  0  0  0  0  0  0  0  0
   -1.2840    2.0094   -0.8777 H   0  0  0  0  0  0  0  0  0  0  0  0
   -1.4047   -0.4737    0.9599 H   0  0  0  0  0  0  0  0  0  0  0  0
   -2.6584    2.7162    1.5265 H   0  0  0  0  0  0  0  0  0  0  0  0
   -5.0420    3.3003    1.8923 H   0  0  0  0  0  0  0  0  0  0  0  0
   -7.5973   -0.1295    0.4276 H   0  0  0  0  0  0  0  0  0  0  0  0
   -7.2490   -2.3428   -0.6149 H   0  0  0  0  0  0  0  0  0  0  0  0
   -4.9427   -3.1334   -1.0986 H   0  0  0  0  0  0  0  0  0  0  0  0
   -3.0192   -1.7138   -0.5387 H   0  0  0  0  0  0  0  0  0  0  0  0
  1  2  1  0
  2  3  1  0
  3  4  2  0
  4  5  1  0
  5  6  2  0
  6  7  1  0
  5  8  1  0
  8  9  1  0
  9 10  2  0
  8 11  2  0
 11 12  1  0
 12 13  1  0
 13 14  2  0
 14 15  1  0
 15 16  2  0
 16 17  1  0
 17 18  2  0
 18 19  1  0
 19 20  2  0
 20 21  1  0
 21 22  2  0
 22 23  1  0
 23 24  2  0
 10  3  1  0
 12  7  2  0
 24 15  1  0
 24 19  1  0
  1 25  1  0
  1 26  1  0
  1 27  1  0
  4 28  1  0
  6 29  1  0
  7 30  1  0
  9 31  1  0
 10 32  1  0
 11 33  1  0
 13 34  1  0
 14 35  1  0
 16 36  1  0
 17 37  1  0
 20 38  1  0
 21 39  1  0
 22 40  1  0
 23 41  1  0
M  END
