
     RDKit          3D

 32 34  0  0  0  0  0  0  0  0999 V2000
   -4.4044    2.1682    0.1690 C   0  0  0  0  0  0  0  0  0  0  0  0
   -3.9392    0.9234   -0.3313 O   0  0  0  0  0  0  0  0  0  0  0  0
   -2.6445    0.5649   -0.0499 C   0  0  0  0  0  0  0  0  0  0  0  0
   -1.7370    1.3663    0.6497 C   0  0  0  0  0  0  0  0  0  0  0  0
   -0.4330    0.9193    0.8846 C   0  0  0  0  0  0  0  0  0  0  0  0
   -0.0135   -0.3284    0.4126 C   0  0  0  0  0  0  0  0  0  0  0  0
   -0.9304   -1.1414   -0.2688 C   0  0  0  0  0  0  0  0  0  0  0  0
   -2.2395   -0.7051   -0.5070 C   0  0  0  0  0  0  0  0  0  0  0  0
   -3.1883   -1.4356   -1.1796 O   0  0  0  0  0  0  0  0  0  0  0  0
   -2.8686   -2.7798   -1.5114 C   0  0  0  0  0  0  0  0  0  0  0  0
    1.3428   -0.8200    0.6454 C   0  0  0  0  0  0  0  0  0  0  0  0
    1.6478   -2.0151    1.1239 N   0  0  0  0  0  0  0  0  0  0  0  0
    3.0153   -2.1189    1.2219 N   0  0  0  0  0  0  0  0  0  0  0  0
    3.5330   -0.9992    0.7722 C   0  0  0  0  0  0  0  0  0  0  0  0
    2.5178   -0.1426    0.3658 N   0  0  0  0  0  0  0  0  0  0  0  0
    2.7658    1.1048   -0.2144 C   0  0  0  0  0  0  0  0  0  0  0  0
    4.0359    1.5192   -0.3644 C   0  0  0  0  0  0  0  0  0  0  0  0
    5.1184    0.6557    0.0825 C   0  0  0  0  0  0  0  0  0  0  0  0
    4.8750   -0.5533    0.6250 C   0  0  0  0  0  0  0  0  0  0  0  0
   -4.3631    2.1957    1.2629 H   0  0  0  0  0  0  0  0  0  0  0  0
   -5.4524    2.2770   -0.1264 H   0  0  0  0  0  0  0  0  0  0  0  0
   -3.8475    3.0025   -0.2699 H   0  0  0  0  0  0  0  0  0  0  0  0
   -2.0154    2.3422    1.0331 H   0  0  0  0  0  0  0  0  0  0  0  0
    0.2415    1.5522    1.4573 H   0  0  0  0  0  0  0  0  0  0  0  0
   -0.5925   -2.1166   -0.6086 H   0  0  0  0  0  0  0  0  0  0  0  0
   -3.7554   -3.2314   -1.9666 H   0  0  0  0  0  0  0  0  0  0  0  0
   -2.0604   -2.8205   -2.2487 H   0  0  0  0  0  0  0  0  0  0  0  0
   -2.6209   -3.3624   -0.6178 H   0  0  0  0  0  0  0  0  0  0  0  0
    1.9184    1.6947   -0.5380 H   0  0  0  0  0  0  0  0  0  0  0  0
    4.2795    2.4758   -0.8153 H   0  0  0  0  0  0  0  0  0  0  0  0
    6.1370    1.0125   -0.0405 H   0  0  0  0  0  0  0  0  0  0  0  0
    5.6779   -1.2038    0.9530 H   0  0  0  0  0  0  0  0  0  0  0  0
  1  2  1  0
  2  3  1  0
  3  4  2  0
  4  5  1  0
  5  6  2  0
  6  7  1  0
  7  8  2  0
  8  9  1  0
  9 10  1  0
  6 11  1  0
 11 12  2  0
 12 13  1  0
 13 14  2  0
 14 15  1  0
 15 16  1  0
 16 17  2  0
 17 18  1  0
 18 19  2  0
  8  3  1  0
 15 11  1  0
 19 14  1  0
  1 20  1  0
  1 21  1  0
  1 22  1  0
  4 23  1  0
  5 24  1  0
  7 25  1  0
 10 26  1  0
 10 27  1  0
 10 28  1  0
 16 29  1  0
 17 30  1  0
 18 31  1  0
 19 32  1  0
M  END
