
     RDKit          3D

 40 44  0  0  0  0  0  0  0  0999 V2000
   -4.2522    2.7363   -0.7113 C   0  0  0  0  0  0  0  0  0  0  0  0
   -3.8488    1.9856    0.4355 O   0  0  0  0  0  0  0  0  0  0  0  0
   -3.2056    0.8213    0.0324 C   0  0  0  0  0  0  0  0  0  0  0  0
   -3.9698   -0.3463   -0.1658 C   0  0  0  0  0  0  0  0  0  0  0  0
   -5.3851   -0.5769   -0.0394 C   0  0  0  0  0  0  0  0  0  0  0  0
   -5.7511   -1.8649   -0.3456 C   0  0  0  0  0  0  0  0  0  0  0  0
   -4.4089   -2.8163   -0.7821 S   0  0  0  0  0  0  0  0  0  0  0  0
   -3.3012   -1.5107   -0.5447 C   0  0  0  0  0  0  0  0  0  0  0  0
   -1.9057   -1.5214   -0.6873 C   0  0  0  0  0  0  0  0  0  0  0  0
   -1.2630   -2.6855   -1.0914 O   0  0  0  0  0  0  0  0  0  0  0  0
   -0.8113   -3.4108    0.0544 C   0  0  0  0  0  0  0  0  0  0  0  0
   -1.1432   -0.3537   -0.4868 C   0  0  0  0  0  0  0  0  0  0  0  0
    0.2717   -0.1232   -0.6099 C   0  0  0  0  0  0  0  0  0  0  0  0
    0.6578    1.1607   -0.2914 C   0  0  0  0  0  0  0  0  0  0  0  0
    2.0008    1.6849   -0.2835 C   0  0  0  0  0  0  0  0  0  0  0  0
    2.3701    3.3032   -0.8081 S   0  0  0  0  0  0  0  0  0  0  0  0
    4.0607    3.1271   -0.5172 C   0  0  0  0  0  0  0  0  0  0  0  0
    4.3126    1.8737   -0.0449 C   0  0  0  0  0  0  0  0  0  0  0  0
    3.1676    1.0648    0.0833 C   0  0  0  0  0  0  0  0  0  0  0  0
    3.5840   -0.2161    0.6007 C   0  0  0  0  0  0  0  0  0  0  0  0
    2.8733   -1.1714    0.8644 O   0  0  0  0  0  0  0  0  0  0  0  0
    4.9608   -0.1131    0.7357 N   0  0  0  0  0  0  0  0  0  0  0  0
    5.7743   -1.1800    1.2581 C   0  0  0  0  0  0  0  0  0  0  0  0
    5.4654    1.1256    0.3805 C   0  0  0  0  0  0  0  0  0  0  0  0
    6.6155    1.5260    0.4163 O   0  0  0  0  0  0  0  0  0  0  0  0
   -0.6990    2.1040    0.1418 S   0  0  0  0  0  0  0  0  0  0  0  0
   -1.8094    0.8082   -0.1063 C   0  0  0  0  0  0  0  0  0  0  0  0
   -3.3964    3.0052   -1.3396 H   0  0  0  0  0  0  0  0  0  0  0  0
   -4.7155    3.6621   -0.3576 H   0  0  0  0  0  0  0  0  0  0  0  0
   -4.9963    2.1900   -1.3006 H   0  0  0  0  0  0  0  0  0  0  0  0
   -6.0944    0.1845    0.2622 H   0  0  0  0  0  0  0  0  0  0  0  0
   -6.7446   -2.2917   -0.3348 H   0  0  0  0  0  0  0  0  0  0  0  0
   -0.3679   -4.3470   -0.2977 H   0  0  0  0  0  0  0  0  0  0  0  0
   -0.0397   -2.8554    0.5978 H   0  0  0  0  0  0  0  0  0  0  0  0
   -1.6404   -3.6605    0.7252 H   0  0  0  0  0  0  0  0  0  0  0  0
    0.9654   -0.8981   -0.9150 H   0  0  0  0  0  0  0  0  0  0  0  0
    4.7516    3.9381   -0.7057 H   0  0  0  0  0  0  0  0  0  0  0  0
    5.6625   -1.1962    2.3463 H   0  0  0  0  0  0  0  0  0  0  0  0
    5.4289   -2.1373    0.8577 H   0  0  0  0  0  0  0  0  0  0  0  0
    6.8264   -1.0246    1.0053 H   0  0  0  0  0  0  0  0  0  0  0  0
  1  2  1  0
  2  3  1  0
  3  4  2  0
  4  5  1  0
  5  6  2  0
  6  7  1  0
  7  8  1  0
  8  9  2  0
  9 10  1  0
 10 11  1  0
  9 12  1  0
 12 13  1  0
 13 14  2  0
 14 15  1  0
 15 16  1  0
 16 17  1  0
 17 18  2  0
 18 19  1  0
 19 20  1  0
 20 21  2  0
 20 22  1  0
 22 23  1  0
 22 24  1  0
 24 25  2  0
 14 26  1  0
 26 27  1  0
 27  3  1  0
  8  4  1  0
 27 12  2  0
 19 15  2  0
 24 18  1  0
  1 28  1  0
  1 29  1  0
  1 30  1  0
  5 31  1  0
  6 32  1  0
 11 33  1  0
 11 34  1  0
 11 35  1  0
 13 36  1  0
 17 37  1  0
 23 38  1  0
 23 39  1  0
 23 40  1  0
M  END
