
     RDKit          3D

 41 45  0  0  0  0  0  0  0  0999 V2000
   -2.7162   -3.0521    1.9167 C   0  0  0  0  0  0  0  0  0  0  0  0
   -2.4458   -2.9277    0.5198 O   0  0  0  0  0  0  0  0  0  0  0  0
   -2.7009   -1.6260    0.1058 C   0  0  0  0  0  0  0  0  0  0  0  0
   -3.9869   -1.3029   -0.3716 C   0  0  0  0  0  0  0  0  0  0  0  0
   -5.1669   -2.1142   -0.5168 C   0  0  0  0  0  0  0  0  0  0  0  0
   -6.2384   -1.4215   -1.0253 C   0  0  0  0  0  0  0  0  0  0  0  0
   -5.8483    0.2056   -1.3375 S   0  0  0  0  0  0  0  0  0  0  0  0
   -4.2192    0.0061   -0.7949 C   0  0  0  0  0  0  0  0  0  0  0  0
   -3.1963    0.9655   -0.7498 C   0  0  0  0  0  0  0  0  0  0  0  0
   -3.4416    2.2595   -1.1932 O   0  0  0  0  0  0  0  0  0  0  0  0
   -3.8379    3.0793   -0.0928 C   0  0  0  0  0  0  0  0  0  0  0  0
   -1.8908    0.6202   -0.3477 C   0  0  0  0  0  0  0  0  0  0  0  0
   -0.6848    1.4035   -0.2978 C   0  0  0  0  0  0  0  0  0  0  0  0
    0.4116    0.7006    0.1523 C   0  0  0  0  0  0  0  0  0  0  0  0
    1.7426    1.2042    0.3336 C   0  0  0  0  0  0  0  0  0  0  0  0
    2.0681    2.6546    1.2186 S   0  0  0  0  0  0  0  0  0  0  0  0
    3.7687    2.5368    0.9832 C   0  0  0  0  0  0  0  0  0  0  0  0
    4.0085    1.4335    0.2414 C   0  0  0  0  0  0  0  0  0  0  0  0
    5.1972    0.8552   -0.2657 C   0  0  0  0  0  0  0  0  0  0  0  0
    4.9684   -0.3124   -1.0172 C   0  0  0  0  0  0  0  0  0  0  0  0
    5.9542   -1.1660   -1.6861 C   0  0  0  0  0  0  0  0  0  0  0  0
    7.4040   -0.7580   -1.5600 C   0  0  0  0  0  0  0  0  0  0  0  0
    5.6713   -2.1764   -2.3317 O   0  0  0  0  0  0  0  0  0  0  0  0
    3.2705   -0.7813   -1.1584 S   0  0  0  0  0  0  0  0  0  0  0  0
    2.9107    0.6672   -0.1455 C   0  0  0  0  0  0  0  0  0  0  0  0
   -0.0119   -0.9046    0.5412 S   0  0  0  0  0  0  0  0  0  0  0  0
   -1.6606   -0.6848    0.0829 C   0  0  0  0  0  0  0  0  0  0  0  0
   -2.4675   -4.0749    2.2150 H   0  0  0  0  0  0  0  0  0  0  0  0
   -2.1001   -2.3676    2.5093 H   0  0  0  0  0  0  0  0  0  0  0  0
   -3.7774   -2.8862    2.1306 H   0  0  0  0  0  0  0  0  0  0  0  0
   -5.2089   -3.1663   -0.2614 H   0  0  0  0  0  0  0  0  0  0  0  0
   -7.2313   -1.7962   -1.2330 H   0  0  0  0  0  0  0  0  0  0  0  0
   -4.7434    2.6963    0.3897 H   0  0  0  0  0  0  0  0  0  0  0  0
   -4.0590    4.0773   -0.4827 H   0  0  0  0  0  0  0  0  0  0  0  0
   -3.0303    3.1745    0.6410 H   0  0  0  0  0  0  0  0  0  0  0  0
   -0.6416    2.4436   -0.6000 H   0  0  0  0  0  0  0  0  0  0  0  0
    4.4498    3.2716    1.3890 H   0  0  0  0  0  0  0  0  0  0  0  0
    6.1854    1.2668   -0.0984 H   0  0  0  0  0  0  0  0  0  0  0  0
    7.5565    0.2309   -2.0006 H   0  0  0  0  0  0  0  0  0  0  0  0
    7.7057   -0.7595   -0.5091 H   0  0  0  0  0  0  0  0  0  0  0  0
    8.0328   -1.4740   -2.0982 H   0  0  0  0  0  0  0  0  0  0  0  0
  1  2  1  0
  2  3  1  0
  3  4  2  0
  4  5  1  0
  5  6  2  0
  6  7  1  0
  7  8  1  0
  8  9  2  0
  9 10  1  0
 10 11  1  0
  9 12  1  0
 12 13  1  0
 13 14  2  0
 14 15  1  0
 15 16  1  0
 16 17  1  0
 17 18  2  0
 18 19  1  0
 19 20  2  0
 20 21  1  0
 21 22  1  0
 21 23  2  0
 20 24  1  0
 24 25  1  0
 14 26  1  0
 26 27  1  0
 27  3  1  0
  8  4  1  0
 27 12  2  0
 25 15  2  0
 25 18  1  0
  1 28  1  0
  1 29  1  0
  1 30  1  0
  5 31  1  0
  6 32  1  0
 11 33  1  0
 11 34  1  0
 11 35  1  0
 13 36  1  0
 17 37  1  0
 19 38  1  0
 22 39  1  0
 22 40  1  0
 22 41  1  0
M  END
