
     RDKit          3D

 41 45  0  0  0  0  0  0  0  0999 V2000
   -4.5165    2.1956    1.1620 C   0  0  0  0  0  0  0  0  0  0  0  0
   -3.8258    2.1392   -0.0871 O   0  0  0  0  0  0  0  0  0  0  0  0
   -3.1595    0.9250   -0.2008 C   0  0  0  0  0  0  0  0  0  0  0  0
   -3.8227   -0.1625   -0.8038 C   0  0  0  0  0  0  0  0  0  0  0  0
   -5.1483   -0.2669   -1.3547 C   0  0  0  0  0  0  0  0  0  0  0  0
   -5.4264   -1.5142   -1.8581 C   0  0  0  0  0  0  0  0  0  0  0  0
   -4.1073   -2.5753   -1.6817 S   0  0  0  0  0  0  0  0  0  0  0  0
   -3.1304   -1.3682   -0.9224 C   0  0  0  0  0  0  0  0  0  0  0  0
   -1.8117   -1.4855   -0.4575 C   0  0  0  0  0  0  0  0  0  0  0  0
   -1.1307   -2.6882   -0.6018 O   0  0  0  0  0  0  0  0  0  0  0  0
   -1.2982   -3.4815    0.5743 C   0  0  0  0  0  0  0  0  0  0  0  0
   -1.1249   -0.3755    0.0728 C   0  0  0  0  0  0  0  0  0  0  0  0
    0.2330   -0.2414    0.5297 C   0  0  0  0  0  0  0  0  0  0  0  0
    0.5410    1.0205    0.9894 C   0  0  0  0  0  0  0  0  0  0  0  0
    1.8102    1.4706    1.4953 C   0  0  0  0  0  0  0  0  0  0  0  0
    1.9541    2.4299    2.9290 S   0  0  0  0  0  0  0  0  0  0  0  0
    3.6720    2.4935    2.8453 C   0  0  0  0  0  0  0  0  0  0  0  0
    4.1188    1.8023    1.7572 C   0  0  0  0  0  0  0  0  0  0  0  0
    5.7883    1.5192    1.1514 S   0  0  0  0  0  0  0  0  0  0  0  0
    5.0198    0.6147   -0.1612 C   0  0  0  0  0  0  0  0  0  0  0  0
    5.8939    0.0247   -1.1717 C   0  0  0  0  0  0  0  0  0  0  0  0
    5.2380   -0.7222   -2.3092 C   0  0  0  0  0  0  0  0  0  0  0  0
    7.1237    0.1030   -1.1415 O   0  0  0  0  0  0  0  0  0  0  0  0
    3.6249    0.5691   -0.0802 C   0  0  0  0  0  0  0  0  0  0  0  0
    2.8692   -0.0651   -0.9897 F   0  0  0  0  0  0  0  0  0  0  0  0
    3.0669    1.2461    1.0317 C   0  0  0  0  0  0  0  0  0  0  0  0
   -0.8103    2.0558    0.8671 S   0  0  0  0  0  0  0  0  0  0  0  0
   -1.8179    0.8263    0.1976 C   0  0  0  0  0  0  0  0  0  0  0  0
   -5.3003    1.4326    1.2156 H   0  0  0  0  0  0  0  0  0  0  0  0
   -3.8288    2.0909    2.0079 H   0  0  0  0  0  0  0  0  0  0  0  0
   -4.9949    3.1768    1.2348 H   0  0  0  0  0  0  0  0  0  0  0  0
   -5.8558    0.5533   -1.3804 H   0  0  0  0  0  0  0  0  0  0  0  0
   -6.3414   -1.8509   -2.3261 H   0  0  0  0  0  0  0  0  0  0  0  0
   -2.3539   -3.6995    0.7670 H   0  0  0  0  0  0  0  0  0  0  0  0
   -0.8475   -2.9956    1.4464 H   0  0  0  0  0  0  0  0  0  0  0  0
   -0.7808   -4.4317    0.4123 H   0  0  0  0  0  0  0  0  0  0  0  0
    0.9440   -1.0590    0.5102 H   0  0  0  0  0  0  0  0  0  0  0  0
    4.2694    3.0217    3.5763 H   0  0  0  0  0  0  0  0  0  0  0  0
    6.0077   -1.0956   -2.9918 H   0  0  0  0  0  0  0  0  0  0  0  0
    4.5808   -0.0530   -2.8709 H   0  0  0  0  0  0  0  0  0  0  0  0
    4.6784   -1.5790   -1.9245 H   0  0  0  0  0  0  0  0  0  0  0  0
  1  2  1  0
  2  3  1  0
  3  4  2  0
  4  5  1  0
  5  6  2  0
  6  7  1  0
  7  8  1  0
  8  9  2  0
  9 10  1  0
 10 11  1  0
  9 12  1  0
 12 13  1  0
 13 14  2  0
 14 15  1  0
 15 16  1  0
 16 17  1  0
 17 18  2  0
 18 19  1  0
 19 20  1  0
 20 21  1  0
 21 22  1  0
 21 23  2  0
 20 24  2  0
 24 25  1  0
 24 26  1  0
 14 27  1  0
 27 28  1  0
 28  3  1  0
  8  4  1  0
 28 12  2  0
 26 15  2  0
 26 18  1  0
  1 29  1  0
  1 30  1  0
  1 31  1  0
  5 32  1  0
  6 33  1  0
 11 34  1  0
 11 35  1  0
 11 36  1  0
 13 37  1  0
 17 38  1  0
 22 39  1  0
 22 40  1  0
 22 41  1  0
M  END
