
     RDKit          3D

 43 44  0  0  0  0  0  0  0  0999 V2000
   -3.7752   -3.5124   -1.1253 C   0  0  0  0  0  0  0  0  0  0  0  0
   -4.2687   -2.2392   -0.7297 O   0  0  0  0  0  0  0  0  0  0  0  0
   -3.3493   -1.2546   -0.4778 C   0  0  0  0  0  0  0  0  0  0  0  0
   -1.9674   -1.4433   -0.4459 C   0  0  0  0  0  0  0  0  0  0  0  0
   -1.1064   -0.3656   -0.1806 C   0  0  0  0  0  0  0  0  0  0  0  0
    0.3590   -0.6434   -0.1607 C   0  0  0  0  0  0  0  0  0  0  0  0
    0.8229   -1.7600   -0.3373 O   0  0  0  0  0  0  0  0  0  0  0  0
    1.0533    0.5262    0.0782 O   0  0  0  0  0  0  0  0  0  0  0  0
    2.4377    0.3478    0.1087 C   0  0  0  0  0  0  0  0  0  0  0  0
    3.1707    0.5366   -1.0610 C   0  0  0  0  0  0  0  0  0  0  0  0
    4.5631    0.4126   -1.0280 C   0  0  0  0  0  0  0  0  0  0  0  0
    5.3754    0.6367   -2.2689 C   0  0  0  0  0  0  0  0  0  0  0  0
    5.1961    0.1333    0.1937 C   0  0  0  0  0  0  0  0  0  0  0  0
    4.4530   -0.0533    1.3702 C   0  0  0  0  0  0  0  0  0  0  0  0
    5.1487   -0.3233    2.6713 C   0  0  0  0  0  0  0  0  0  0  0  0
    3.0612    0.0733    1.3242 C   0  0  0  0  0  0  0  0  0  0  0  0
   -1.6337    0.9147    0.0538 C   0  0  0  0  0  0  0  0  0  0  0  0
   -3.0144    1.1221    0.0252 C   0  0  0  0  0  0  0  0  0  0  0  0
   -3.6286    2.3285    0.2414 O   0  0  0  0  0  0  0  0  0  0  0  0
   -2.8047    3.4841    0.3144 C   0  0  0  0  0  0  0  0  0  0  0  0
   -3.8628    0.0284   -0.2222 C   0  0  0  0  0  0  0  0  0  0  0  0
   -5.2229    0.2373   -0.2955 O   0  0  0  0  0  0  0  0  0  0  0  0
   -5.8148    0.0310    0.9860 C   0  0  0  0  0  0  0  0  0  0  0  0
   -3.1678   -3.4385   -2.0334 H   0  0  0  0  0  0  0  0  0  0  0  0
   -3.2167   -3.9864   -0.3117 H   0  0  0  0  0  0  0  0  0  0  0  0
   -4.6362   -4.1486   -1.3518 H   0  0  0  0  0  0  0  0  0  0  0  0
   -1.5308   -2.4224   -0.6236 H   0  0  0  0  0  0  0  0  0  0  0  0
    2.6587    0.7751   -1.9886 H   0  0  0  0  0  0  0  0  0  0  0  0
    4.8103    0.3524   -3.1628 H   0  0  0  0  0  0  0  0  0  0  0  0
    6.2861    0.0287   -2.2541 H   0  0  0  0  0  0  0  0  0  0  0  0
    5.6546    1.6918   -2.3477 H   0  0  0  0  0  0  0  0  0  0  0  0
    6.2819    0.0585    0.2290 H   0  0  0  0  0  0  0  0  0  0  0  0
    4.5118   -0.9109    3.3408 H   0  0  0  0  0  0  0  0  0  0  0  0
    6.0672   -0.8975    2.5109 H   0  0  0  0  0  0  0  0  0  0  0  0
    5.4022    0.6210    3.1629 H   0  0  0  0  0  0  0  0  0  0  0  0
    2.4654   -0.0435    2.2245 H   0  0  0  0  0  0  0  0  0  0  0  0
   -0.9599    1.7388    0.2608 H   0  0  0  0  0  0  0  0  0  0  0  0
   -3.4595    4.3572    0.3942 H   0  0  0  0  0  0  0  0  0  0  0  0
   -2.1738    3.4590    1.2087 H   0  0  0  0  0  0  0  0  0  0  0  0
   -2.2021    3.6014   -0.5925 H   0  0  0  0  0  0  0  0  0  0  0  0
   -5.6760   -0.9998    1.3297 H   0  0  0  0  0  0  0  0  0  0  0  0
   -6.8895    0.2125    0.8909 H   0  0  0  0  0  0  0  0  0  0  0  0
   -5.4183    0.7336    1.7271 H   0  0  0  0  0  0  0  0  0  0  0  0
  1  2  1  0
  2  3  1  0
  3  4  2  0
  4  5  1  0
  5  6  1  0
  6  7  2  0
  6  8  1  0
  8  9  1  0
  9 10  2  0
 10 11  1  0
 11 12  1  0
 11 13  2  0
 13 14  1  0
 14 15  1  0
 14 16  2  0
  5 17  2  0
 17 18  1  0
 18 19  1  0
 19 20  1  0
 18 21  2  0
 21 22  1  0
 22 23  1  0
 21  3  1  0
 16  9  1  0
  1 24  1  0
  1 25  1  0
  1 26  1  0
  4 27  1  0
 10 28  1  0
 12 29  1  0
 12 30  1  0
 12 31  1  0
 13 32  1  0
 15 33  1  0
 15 34  1  0
 15 35  1  0
 16 36  1  0
 17 37  1  0
 20 38  1  0
 20 39  1  0
 20 40  1  0
 23 41  1  0
 23 42  1  0
 23 43  1  0
M  END
