
     RDKit          3D

 41 42  0  0  0  0  0  0  0  0999 V2000
   -1.8915    1.3645    3.3048 C   0  0  0  0  0  0  0  0  0  0  0  0
   -1.4826    0.7799    2.0749 O   0  0  0  0  0  0  0  0  0  0  0  0
   -2.4701    0.4036    1.1941 C   0  0  0  0  0  0  0  0  0  0  0  0
   -3.8378    0.5918    1.4021 C   0  0  0  0  0  0  0  0  0  0  0  0
   -4.7588    0.1749    0.4359 C   0  0  0  0  0  0  0  0  0  0  0  0
   -6.4371    0.4391    0.7576 Cl  0  0  0  0  0  0  0  0  0  0  0  0
   -4.3298   -0.4346   -0.7505 C   0  0  0  0  0  0  0  0  0  0  0  0
   -5.2972   -0.8930   -1.8059 C   0  0  0  0  0  0  0  0  0  0  0  0
   -2.9513   -0.6199   -0.9527 C   0  0  0  0  0  0  0  0  0  0  0  0
   -2.0203   -0.2079    0.0054 C   0  0  0  0  0  0  0  0  0  0  0  0
   -0.6251   -0.3680   -0.1421 N   0  0  0  0  0  0  0  0  0  0  0  0
    0.0791   -0.8996   -1.1997 C   0  0  0  0  0  0  0  0  0  0  0  0
   -0.4105   -1.3587   -2.2276 O   0  0  0  0  0  0  0  0  0  0  0  0
    1.5711   -0.9289   -1.0518 C   0  0  0  0  0  0  0  0  0  0  0  0
    2.2748   -1.8199   -1.8771 C   0  0  0  0  0  0  0  0  0  0  0  0
    3.6627   -1.9252   -1.7924 C   0  0  0  0  0  0  0  0  0  0  0  0
    4.3706   -1.1463   -0.8762 C   0  0  0  0  0  0  0  0  0  0  0  0
    3.6969   -0.2463   -0.0461 C   0  0  0  0  0  0  0  0  0  0  0  0
    4.3032    0.5493    0.8926 O   0  0  0  0  0  0  0  0  0  0  0  0
    5.6932    0.3554    1.1180 C   0  0  0  0  0  0  0  0  0  0  0  0
    2.2968   -0.1203   -0.1591 C   0  0  0  0  0  0  0  0  0  0  0  0
    1.6353    0.7652    0.6635 O   0  0  0  0  0  0  0  0  0  0  0  0
    1.7080    2.0894    0.1259 C   0  0  0  0  0  0  0  0  0  0  0  0
   -2.5046    0.6698    3.8882 H   0  0  0  0  0  0  0  0  0  0  0  0
   -0.9905    1.5821    3.8864 H   0  0  0  0  0  0  0  0  0  0  0  0
   -2.4149    2.3112    3.1360 H   0  0  0  0  0  0  0  0  0  0  0  0
   -4.2145    1.0605    2.3045 H   0  0  0  0  0  0  0  0  0  0  0  0
   -4.7789   -1.3443   -2.6587 H   0  0  0  0  0  0  0  0  0  0  0  0
   -5.8763   -0.0455   -2.1865 H   0  0  0  0  0  0  0  0  0  0  0  0
   -5.9761   -1.6490   -1.3985 H   0  0  0  0  0  0  0  0  0  0  0  0
   -2.6223   -1.0942   -1.8726 H   0  0  0  0  0  0  0  0  0  0  0  0
   -0.0846   -0.0169    0.6485 H   0  0  0  0  0  0  0  0  0  0  0  0
    1.7384   -2.4458   -2.5891 H   0  0  0  0  0  0  0  0  0  0  0  0
    4.1917   -2.6232   -2.4376 H   0  0  0  0  0  0  0  0  0  0  0  0
    5.4484   -1.2664   -0.8370 H   0  0  0  0  0  0  0  0  0  0  0  0
    5.9053   -0.6719    1.4322 H   0  0  0  0  0  0  0  0  0  0  0  0
    5.9954    1.0211    1.9323 H   0  0  0  0  0  0  0  0  0  0  0  0
    6.2762    0.6282    0.2324 H   0  0  0  0  0  0  0  0  0  0  0  0
    2.7247    2.4901    0.1836 H   0  0  0  0  0  0  0  0  0  0  0  0
    1.3444    2.1213   -0.9074 H   0  0  0  0  0  0  0  0  0  0  0  0
    1.0586    2.7286    0.7317 H   0  0  0  0  0  0  0  0  0  0  0  0
  1  2  1  0
  2  3  1  0
  3  4  2  0
  4  5  1  0
  5  6  1  0
  5  7  2  0
  7  8  1  0
  7  9  1  0
  9 10  2  0
 10 11  1  0
 11 12  1  0
 12 13  2  0
 12 14  1  0
 14 15  2  0
 15 16  1  0
 16 17  2  0
 17 18  1  0
 18 19  1  0
 19 20  1  0
 18 21  2  0
 21 22  1  0
 22 23  1  0
 10  3  1  0
 21 14  1  0
  1 24  1  0
  1 25  1  0
  1 26  1  0
  4 27  1  0
  8 28  1  0
  8 29  1  0
  8 30  1  0
  9 31  1  0
 11 32  1  0
 15 33  1  0
 16 34  1  0
 17 35  1  0
 20 36  1  0
 20 37  1  0
 20 38  1  0
 23 39  1  0
 23 40  1  0
 23 41  1  0
M  END
