
     RDKit          3D

 44 45  0  0  0  0  0  0  0  0999 V2000
   -5.7657   -2.6752   -0.4694 C   0  0  0  0  0  0  0  0  0  0  0  0
   -4.4126   -2.5701   -0.0424 O   0  0  0  0  0  0  0  0  0  0  0  0
   -3.8392   -1.3280   -0.0762 C   0  0  0  0  0  0  0  0  0  0  0  0
   -4.4730   -0.1398   -0.4547 C   0  0  0  0  0  0  0  0  0  0  0  0
   -3.7651    1.0662   -0.4539 C   0  0  0  0  0  0  0  0  0  0  0  0
   -4.2631    2.2909   -0.8053 O   0  0  0  0  0  0  0  0  0  0  0  0
   -5.6181    2.3468   -1.2330 C   0  0  0  0  0  0  0  0  0  0  0  0
   -2.4243    1.0793   -0.0641 C   0  0  0  0  0  0  0  0  0  0  0  0
   -1.7900   -0.1010    0.3344 C   0  0  0  0  0  0  0  0  0  0  0  0
   -0.3626   -0.0334    0.7431 C   0  0  0  0  0  0  0  0  0  0  0  0
    0.3775    0.8033    0.2339 O   0  0  0  0  0  0  0  0  0  0  0  0
    0.0307   -0.9318    1.7278 N   0  0  0  0  0  0  0  0  0  0  0  0
    1.2816   -1.1210    2.2742 C   0  0  0  0  0  0  0  0  0  0  0  0
    1.4487   -2.2822    3.4634 S   0  0  0  0  0  0  0  0  0  0  0  0
    2.2713   -0.3163    1.7914 N   0  0  0  0  0  0  0  0  0  0  0  0
    3.6938   -0.3977    2.1021 C   0  0  0  0  0  0  0  0  0  0  0  0
    4.4939    0.7735    1.5233 C   0  0  0  0  0  0  0  0  0  0  0  0
    4.6364    0.7093    0.0201 C   0  0  0  0  0  0  0  0  0  0  0  0
    5.6216   -0.0992   -0.5646 C   0  0  0  0  0  0  0  0  0  0  0  0
    5.7449   -0.1733   -1.9534 C   0  0  0  0  0  0  0  0  0  0  0  0
    4.8835    0.5563   -2.7704 C   0  0  0  0  0  0  0  0  0  0  0  0
    3.8981    1.3597   -2.1999 C   0  0  0  0  0  0  0  0  0  0  0  0
    3.7752    1.4379   -0.8117 C   0  0  0  0  0  0  0  0  0  0  0  0
   -2.4974   -1.3066    0.3138 C   0  0  0  0  0  0  0  0  0  0  0  0
   -5.8741   -2.3689   -1.5154 H   0  0  0  0  0  0  0  0  0  0  0  0
   -6.0587   -3.7273   -0.3981 H   0  0  0  0  0  0  0  0  0  0  0  0
   -6.4299   -2.0994    0.1834 H   0  0  0  0  0  0  0  0  0  0  0  0
   -5.5131   -0.1538   -0.7535 H   0  0  0  0  0  0  0  0  0  0  0  0
   -5.8483    3.3875   -1.4801 H   0  0  0  0  0  0  0  0  0  0  0  0
   -5.7716    1.7476   -2.1366 H   0  0  0  0  0  0  0  0  0  0  0  0
   -6.2970    2.0370   -0.4321 H   0  0  0  0  0  0  0  0  0  0  0  0
   -1.8750    2.0198   -0.0685 H   0  0  0  0  0  0  0  0  0  0  0  0
   -0.6731   -1.5236    2.1462 H   0  0  0  0  0  0  0  0  0  0  0  0
    2.0133    0.2264    0.9664 H   0  0  0  0  0  0  0  0  0  0  0  0
    3.7992   -0.3979    3.1926 H   0  0  0  0  0  0  0  0  0  0  0  0
    4.0646   -1.3591    1.7278 H   0  0  0  0  0  0  0  0  0  0  0  0
    4.0331    1.7267    1.8121 H   0  0  0  0  0  0  0  0  0  0  0  0
    5.4983    0.7764    1.9651 H   0  0  0  0  0  0  0  0  0  0  0  0
    6.2997   -0.6773    0.0592 H   0  0  0  0  0  0  0  0  0  0  0  0
    6.5119   -0.8015   -2.3977 H   0  0  0  0  0  0  0  0  0  0  0  0
    4.9777    0.4985   -3.8512 H   0  0  0  0  0  0  0  0  0  0  0  0
    3.2199    1.9237   -2.8350 H   0  0  0  0  0  0  0  0  0  0  0  0
    2.9944    2.0656   -0.3858 H   0  0  0  0  0  0  0  0  0  0  0  0
   -2.0173   -2.2481    0.5682 H   0  0  0  0  0  0  0  0  0  0  0  0
  1  2  1  0
  2  3  1  0
  3  4  2  0
  4  5  1  0
  5  6  1  0
  6  7  1  0
  5  8  2  0
  8  9  1  0
  9 10  1  0
 10 11  2  0
 10 12  1  0
 12 13  1  0
 13 14  2  0
 13 15  1  0
 15 16  1  0
 16 17  1  0
 17 18  1  0
 18 19  2  0
 19 20  1  0
 20 21  2  0
 21 22  1  0
 22 23  2  0
  9 24  2  0
 24  3  1  0
 23 18  1  0
  1 25  1  0
  1 26  1  0
  1 27  1  0
  4 28  1  0
  7 29  1  0
  7 30  1  0
  7 31  1  0
  8 32  1  0
 12 33  1  0
 15 34  1  0
 16 35  1  0
 16 36  1  0
 17 37  1  0
 17 38  1  0
 19 39  1  0
 20 40  1  0
 21 41  1  0
 22 42  1  0
 23 43  1  0
 24 44  1  0
M  END
