
     RDKit          3D

 42 44  0  0  0  0  0  0  0  0999 V2000
   -4.9730   -0.4676   -2.4183 C   0  0  0  0  0  0  0  0  0  0  0  0
   -4.2096   -1.3158   -1.5725 O   0  0  0  0  0  0  0  0  0  0  0  0
   -3.1700   -0.7494   -0.8839 C   0  0  0  0  0  0  0  0  0  0  0  0
   -2.7071    0.5566   -1.0719 C   0  0  0  0  0  0  0  0  0  0  0  0
   -1.6523    1.0671   -0.2935 C   0  0  0  0  0  0  0  0  0  0  0  0
   -1.0363    0.2574    0.6765 C   0  0  0  0  0  0  0  0  0  0  0  0
   -1.5010   -1.0489    0.8661 C   0  0  0  0  0  0  0  0  0  0  0  0
   -2.5369   -1.5527    0.0759 C   0  0  0  0  0  0  0  0  0  0  0  0
   -2.9346   -2.8399    0.3444 O   0  0  0  0  0  0  0  0  0  0  0  0
   -2.5652   -3.7167   -0.7202 C   0  0  0  0  0  0  0  0  0  0  0  0
    0.0662    0.7972    1.5637 C   0  0  0  0  0  0  0  0  0  0  0  0
    0.7788    1.9707    1.0238 N   0  0  0  0  0  0  0  0  0  0  0  0
    1.7391    1.6083   -0.0330 C   0  0  0  0  0  0  0  0  0  0  0  0
    2.9547    0.9148    0.5251 C   0  0  0  0  0  0  0  0  0  0  0  0
    3.7949    1.3379    1.5365 C   0  0  0  0  0  0  0  0  0  0  0  0
    4.8493    0.4150    1.7901 C   0  0  0  0  0  0  0  0  0  0  0  0
    4.7854   -0.6876    0.9643 C   0  0  0  0  0  0  0  0  0  0  0  0
    5.6931   -1.8684    0.9221 C   0  0  0  0  0  0  0  0  0  0  0  0
    3.4594   -0.5934   -0.1124 S   0  0  0  0  0  0  0  0  0  0  0  0
   -0.2037    2.9646    0.5639 C   0  0  0  0  0  0  0  0  0  0  0  0
   -1.1426    2.4653   -0.5447 C   0  0  0  0  0  0  0  0  0  0  0  0
   -5.3919    0.3776   -1.8630 H   0  0  0  0  0  0  0  0  0  0  0  0
   -5.8093   -1.0530   -2.8118 H   0  0  0  0  0  0  0  0  0  0  0  0
   -4.3772   -0.1261   -3.2701 H   0  0  0  0  0  0  0  0  0  0  0  0
   -3.1491    1.2053   -1.8214 H   0  0  0  0  0  0  0  0  0  0  0  0
   -1.0553   -1.6874    1.6257 H   0  0  0  0  0  0  0  0  0  0  0  0
   -3.2819   -3.6595   -1.5453 H   0  0  0  0  0  0  0  0  0  0  0  0
   -1.5472   -3.5200   -1.0792 H   0  0  0  0  0  0  0  0  0  0  0  0
   -2.5890   -4.7394   -0.3301 H   0  0  0  0  0  0  0  0  0  0  0  0
    0.7731   -0.0037    1.8118 H   0  0  0  0  0  0  0  0  0  0  0  0
   -0.3948    1.0891    2.5173 H   0  0  0  0  0  0  0  0  0  0  0  0
    2.1058    2.5247   -0.5165 H   0  0  0  0  0  0  0  0  0  0  0  0
    1.2720    1.0099   -0.8248 H   0  0  0  0  0  0  0  0  0  0  0  0
    3.6459    2.2653    2.0758 H   0  0  0  0  0  0  0  0  0  0  0  0
    5.6114    0.5530    2.5466 H   0  0  0  0  0  0  0  0  0  0  0  0
    5.1421   -2.7894    1.1410 H   0  0  0  0  0  0  0  0  0  0  0  0
    6.1599   -1.9649   -0.0639 H   0  0  0  0  0  0  0  0  0  0  0  0
    6.4938   -1.7732    1.6636 H   0  0  0  0  0  0  0  0  0  0  0  0
   -0.8054    3.2770    1.4289 H   0  0  0  0  0  0  0  0  0  0  0  0
    0.3082    3.8750    0.2277 H   0  0  0  0  0  0  0  0  0  0  0  0
   -1.9883    3.1576   -0.6301 H   0  0  0  0  0  0  0  0  0  0  0  0
   -0.6112    2.4677   -1.5042 H   0  0  0  0  0  0  0  0  0  0  0  0
  1  2  1  0
  2  3  1  0
  3  4  2  0
  4  5  1  0
  5  6  2  0
  6  7  1  0
  7  8  2  0
  8  9  1  0
  9 10  1  0
  6 11  1  0
 11 12  1  0
 12 13  1  0
 13 14  1  0
 14 15  2  0
 15 16  1  0
 16 17  2  0
 17 18  1  0
 17 19  1  0
 12 20  1  0
 20 21  1  0
  8  3  1  0
 19 14  1  0
 21  5  1  0
  1 22  1  0
  1 23  1  0
  1 24  1  0
  4 25  1  0
  7 26  1  0
 10 27  1  0
 10 28  1  0
 10 29  1  0
 11 30  1  0
 11 31  1  0
 13 32  1  0
 13 33  1  0
 15 34  1  0
 16 35  1  0
 18 36  1  0
 18 37  1  0
 18 38  1  0
 20 39  1  0
 20 40  1  0
 21 41  1  0
 21 42  1  0
M  END
