
     RDKit          3D

 48 55  0  0  0  0  0  0  0  0999 V2000
    2.2384   -1.1731    0.0043 Si  0  0  0  0  0  4  0  0  0  0  0  0
    3.3562    0.3309    0.0808 C   0  0  0  0  0  0  0  0  0  0  0  0
    2.6255    1.4613    0.0232 C   0  0  0  0  0  0  0  0  0  0  0  0
    1.1731    1.2502   -0.0763 C   0  0  0  0  0  0  0  0  0  0  0  0
    0.2614    2.2641   -0.0707 C   0  0  0  0  0  0  0  0  0  0  0  0
   -1.0591    2.0326   -0.0852 N   0  0  0  0  0  0  0  0  0  0  0  0
   -1.5607    0.7719   -0.1315 C   0  0  0  0  0  0  0  0  0  0  0  0
   -0.7275   -0.3748   -0.2306 C   0  0  0  0  0  0  0  0  0  0  0  0
    0.6843   -0.0773   -0.1513 C   0  0  0  0  0  0  0  0  0  0  0  0
   -1.3700   -1.6810   -0.3742 C   0  0  0  0  0  0  0  0  0  0  0  0
   -0.6567   -2.8740   -0.6768 C   0  0  0  0  0  0  0  0  0  0  0  0
   -1.2329   -4.1425   -0.7566 C   0  0  0  0  0  0  0  0  0  0  0  0
   -2.5829   -4.2763   -0.5543 C   0  0  0  0  0  0  0  0  0  0  0  0
   -3.3397   -3.1335   -0.3175 C   0  0  0  0  0  0  0  0  0  0  0  0
   -2.7878   -1.8206   -0.2472 C   0  0  0  0  0  0  0  0  0  0  0  0
   -3.6193   -0.6715   -0.0751 C   0  0  0  0  0  0  0  0  0  0  0  0
   -5.0851   -0.7671    0.0515 C   0  0  0  0  0  0  0  0  0  0  0  0
   -6.0136    0.2884    0.1900 C   0  0  0  0  0  0  0  0  0  0  0  0
   -5.3434    1.4878    0.1887 C   0  0  0  0  0  0  0  0  0  0  0  0
   -5.9527    2.7108    0.3011 C   0  0  0  0  0  0  0  0  0  0  0  0
   -4.9520    3.6505    0.2608 N   0  0  0  0  0  0  0  0  0  0  0  0
   -3.7299    3.0298    0.1265 C   0  0  0  0  0  0  0  0  0  0  0  0
   -3.9339    1.6677    0.0772 C   0  0  0  0  0  0  0  0  0  0  0  0
   -2.9688    0.6107   -0.0539 C   0  0  0  0  0  0  0  0  0  0  0  0
    4.8030    0.1672    0.1842 C   0  0  0  0  0  0  0  0  0  0  0  0
    5.3088   -1.0568    0.5510 N   0  0  0  0  0  0  0  0  0  0  0  0
    6.6550   -1.2768    0.6758 C   0  0  0  0  0  0  0  0  0  0  0  0
    7.6791   -0.3642    0.4625 C   0  0  0  0  0  0  0  0  0  0  0  0
    7.2201    0.9075    0.0758 C   0  0  0  0  0  0  0  0  0  0  0  0
    8.0084    1.9600   -0.1942 N   0  0  0  0  0  0  0  0  0  0  0  0
    7.0009    3.2099   -0.6072 S   0  0  0  0  0  0  0  0  0  0  0  0
    5.5231    2.4762   -0.4598 N   0  0  0  0  0  0  0  0  0  0  0  0
    5.7461    1.2048   -0.0742 C   0  0  0  0  0  0  0  0  0  0  0  0
    2.2001   -1.9630    1.2621 H   0  0  0  0  0  0  0  0  0  0  0  0
    2.4626   -1.9670   -1.2335 H   0  0  0  0  0  0  0  0  0  0  0  0
    3.0227    2.4679    0.0589 H   0  0  0  0  0  0  0  0  0  0  0  0
    0.5512    3.3081   -0.0242 H   0  0  0  0  0  0  0  0  0  0  0  0
    0.3948   -2.8541   -0.9182 H   0  0  0  0  0  0  0  0  0  0  0  0
   -0.6197   -5.0094   -0.9868 H   0  0  0  0  0  0  0  0  0  0  0  0
   -3.0587   -5.2512   -0.6063 H   0  0  0  0  0  0  0  0  0  0  0  0
   -4.4039   -3.3099   -0.1993 H   0  0  0  0  0  0  0  0  0  0  0  0
   -5.5557   -1.7483    0.0384 H   0  0  0  0  0  0  0  0  0  0  0  0
   -7.0802    0.1459    0.2761 H   0  0  0  0  0  0  0  0  0  0  0  0
   -6.9881    3.0048    0.4048 H   0  0  0  0  0  0  0  0  0  0  0  0
   -5.0867    4.6511    0.3210 H   0  0  0  0  0  0  0  0  0  0  0  0
   -2.8339    3.6320    0.0786 H   0  0  0  0  0  0  0  0  0  0  0  0
    6.9024   -2.2948    0.9779 H   0  0  0  0  0  0  0  0  0  0  0  0
    8.7257   -0.6051    0.5786 H   0  0  0  0  0  0  0  0  0  0  0  0
  1  2  1  0
  2  3  2  0
  3  4  1  0
  4  5  2  0
  5  6  1  0
  6  7  2  0
  7  8  1  0
  8  9  2  0
  8 10  1  0
 10 11  2  0
 11 12  1  0
 12 13  2  0
 13 14  1  0
 14 15  2  0
 15 16  1  0
 16 17  1  0
 17 18  2  0
 18 19  1  0
 19 20  2  0
 20 21  1  0
 21 22  1  0
 22 23  2  0
 23 24  1  0
  2 25  1  0
 25 26  2  0
 26 27  1  0
 27 28  2  0
 28 29  1  0
 29 30  2  0
 30 31  1  0
 31 32  1  0
 32 33  2  0
  9  1  1  0
 15 10  1  0
 24 16  2  0
 33 25  1  0
  9  4  1  0
 23 19  1  0
 33 29  1  0
 24  7  1  0
  1 34  1  0
  1 35  1  0
  3 36  1  0
  5 37  1  0
 11 38  1  0
 12 39  1  0
 13 40  1  0
 14 41  1  0
 17 42  1  0
 18 43  1  0
 20 44  1  0
 21 45  1  0
 22 46  1  0
 27 47  1  0
 28 48  1  0
M  END
