
     RDKit          3D

 36 42  0  0  0  0  0  0  0  0999 V2000
    6.5674   -1.2603    0.1197 Si  0  0  0  0  0  4  0  0  0  0  0  0
    5.0176   -2.3715    0.0066 C   0  0  0  0  0  0  0  0  0  0  0  0
    3.8863   -1.6361   -0.0667 C   0  0  0  0  0  0  0  0  0  0  0  0
    4.0812   -0.2133   -0.0433 C   0  0  0  0  0  0  0  0  0  0  0  0
    5.4267    0.2353    0.0455 C   0  0  0  0  0  0  0  0  0  0  0  0
    5.5840    1.5848    0.0570 C   0  0  0  0  0  0  0  0  0  0  0  0
    4.0398    2.3401   -0.0423 S   0  0  0  0  0  0  0  0  0  0  0  0
    3.1742    0.8249   -0.1050 C   0  0  0  0  0  0  0  0  0  0  0  0
    1.7612    0.8092   -0.1761 C   0  0  0  0  0  0  0  0  0  0  0  0
    0.9522    0.1380    0.6769 C   0  0  0  0  0  0  0  0  0  0  0  0
   -0.4189    0.2779    0.3135 C   0  0  0  0  0  0  0  0  0  0  0  0
   -1.5331   -0.2374    0.9094 O   0  0  0  0  0  0  0  0  0  0  0  0
   -2.5848    0.2069    0.1485 C   0  0  0  0  0  0  0  0  0  0  0  0
   -2.1482    0.9753   -0.8950 C   0  0  0  0  0  0  0  0  0  0  0  0
   -3.4729    1.5462   -1.8707 S   0  0  0  0  0  0  0  0  0  0  0  0
   -4.6277    0.7308   -0.8465 C   0  0  0  0  0  0  0  0  0  0  0  0
   -6.0355    0.6866   -0.9532 C   0  0  0  0  0  0  0  0  0  0  0  0
   -6.7984   -0.0376   -0.0127 C   0  0  0  0  0  0  0  0  0  0  0  0
   -6.0999   -0.7054    1.0231 C   0  0  0  0  0  0  0  0  0  0  0  0
   -6.6548   -1.4417    2.0049 N   0  0  0  0  0  0  0  0  0  0  0  0
   -5.3914   -2.0018    2.9562 S   0  0  0  0  0  0  0  0  0  0  0  0
   -4.0793   -1.3317    2.1577 N   0  0  0  0  0  0  0  0  0  0  0  0
   -4.6502   -0.6787    1.1599 C   0  0  0  0  0  0  0  0  0  0  0  0
   -3.9658    0.0754    0.1680 C   0  0  0  0  0  0  0  0  0  0  0  0
   -0.7625    1.0226   -0.7949 C   0  0  0  0  0  0  0  0  0  0  0  0
    0.7661    1.6932   -1.5686 Si  0  0  0  0  0  4  0  0  0  0  0  0
    7.4277   -1.4225   -1.0788 H   0  0  0  0  0  0  0  0  0  0  0  0
    7.2549   -1.4334    1.4234 H   0  0  0  0  0  0  0  0  0  0  0  0
    5.1044   -3.4461    0.0038 H   0  0  0  0  0  0  0  0  0  0  0  0
    2.9005   -2.0807   -0.1421 H   0  0  0  0  0  0  0  0  0  0  0  0
    6.4865    2.1777    0.1184 H   0  0  0  0  0  0  0  0  0  0  0  0
    1.2681   -0.4428    1.5329 H   0  0  0  0  0  0  0  0  0  0  0  0
   -6.5382    1.2121   -1.7628 H   0  0  0  0  0  0  0  0  0  0  0  0
   -7.8801   -0.0849   -0.0755 H   0  0  0  0  0  0  0  0  0  0  0  0
    1.0647    1.1165   -2.9050 H   0  0  0  0  0  0  0  0  0  0  0  0
    0.8782    3.1723   -1.4864 H   0  0  0  0  0  0  0  0  0  0  0  0
  1  2  1  0
  2  3  2  0
  3  4  1  0
  4  5  1  0
  5  6  2  0
  6  7  1  0
  7  8  1  0
  8  9  1  0
  9 10  2  0
 10 11  1  0
 11 12  1  0
 12 13  1  0
 13 14  2  0
 14 15  1  0
 15 16  1  0
 16 17  1  0
 17 18  2  0
 18 19  1  0
 19 20  2  0
 20 21  1  0
 21 22  1  0
 22 23  2  0
 23 24  1  0
 14 25  1  0
 25 26  1  0
  5  1  1  0
 26  9  1  0
  8  4  2  0
 25 11  2  0
 24 13  1  0
 24 16  2  0
 23 19  1  0
  1 27  1  0
  1 28  1  0
  2 29  1  0
  3 30  1  0
  6 31  1  0
 10 32  1  0
 17 33  1  0
 18 34  1  0
 26 35  1  0
 26 36  1  0
M  END
