
     RDKit          3D

 29 30  0  0  0  0  0  0  0  0999 V2000
    1.8337   -3.2128   -1.6876 C   0  0  0  0  0  0  0  0  0  0  0  0
    0.9824   -2.1107   -1.4002 O   0  0  0  0  0  0  0  0  0  0  0  0
    1.4446   -1.1358   -0.5622 C   0  0  0  0  0  0  0  0  0  0  0  0
    2.7268   -1.1287   -0.0009 C   0  0  0  0  0  0  0  0  0  0  0  0
    3.1332   -0.0825    0.8318 C   0  0  0  0  0  0  0  0  0  0  0  0
    2.2609    0.9663    1.1025 C   0  0  0  0  0  0  0  0  0  0  0  0
    2.8205    2.3844    2.2198 Br  0  0  0  0  0  0  0  0  0  0  0  0
    0.9797    0.9820    0.5563 C   0  0  0  0  0  0  0  0  0  0  0  0
    0.5693   -0.0756   -0.2683 C   0  0  0  0  0  0  0  0  0  0  0  0
   -1.0587   -0.1070   -0.9803 S   0  0  0  0  0  6  0  0  0  0  0  0
   -1.7250   -1.3346   -0.5907 O   0  0  0  0  0  0  0  0  0  0  0  0
   -0.9469    0.3198   -2.3628 O   0  0  0  0  0  0  0  0  0  0  0  0
   -1.9516    1.1147   -0.2209 N   0  0  0  0  0  0  0  0  0  0  0  0
   -2.0847    2.3886   -0.7076 C   0  0  0  0  0  0  0  0  0  0  0  0
   -2.7260    3.0748    0.2942 C   0  0  0  0  0  0  0  0  0  0  0  0
   -2.9467    2.2608    1.3772 N   0  0  0  0  0  0  0  0  0  0  0  0
   -2.4762    1.0687    1.0493 C   0  0  0  0  0  0  0  0  0  0  0  0
   -2.5099   -0.1285    1.9273 C   0  0  0  0  0  0  0  0  0  0  0  0
    2.0839   -3.7662   -0.7766 H   0  0  0  0  0  0  0  0  0  0  0  0
    2.7362   -2.8858   -2.2140 H   0  0  0  0  0  0  0  0  0  0  0  0
    1.2889   -3.8917   -2.3507 H   0  0  0  0  0  0  0  0  0  0  0  0
    3.4414   -1.9230   -0.1953 H   0  0  0  0  0  0  0  0  0  0  0  0
    4.1344   -0.0951    1.2569 H   0  0  0  0  0  0  0  0  0  0  0  0
    0.3341    1.8245    0.7826 H   0  0  0  0  0  0  0  0  0  0  0  0
   -1.7351    2.6817   -1.6883 H   0  0  0  0  0  0  0  0  0  0  0  0
   -3.0319    4.1139    0.3013 H   0  0  0  0  0  0  0  0  0  0  0  0
   -2.8552    0.1501    2.9285 H   0  0  0  0  0  0  0  0  0  0  0  0
   -3.2046   -0.8777    1.5367 H   0  0  0  0  0  0  0  0  0  0  0  0
   -1.5176   -0.5746    2.0368 H   0  0  0  0  0  0  0  0  0  0  0  0
  1  2  1  0
  2  3  1  0
  3  4  2  0
  4  5  1  0
  5  6  2  0
  6  7  1  0
  6  8  1  0
  8  9  2  0
  9 10  1  0
 10 11  2  0
 10 12  2  0
 10 13  1  0
 13 14  1  0
 14 15  2  0
 15 16  1  0
 16 17  2  0
 17 18  1  0
  9  3  1  0
 17 13  1  0
  1 19  1  0
  1 20  1  0
  1 21  1  0
  4 22  1  0
  5 23  1  0
  8 24  1  0
 14 25  1  0
 15 26  1  0
 18 27  1  0
 18 28  1  0
 18 29  1  0
M  END
