
     RDKit          3D

 29 30  0  0  0  0  0  0  0  0999 V2000
    5.2435   -0.1652   -0.8714 C   0  0  0  0  0  0  0  0  0  0  0  0
    4.2744    0.8106   -0.5103 O   0  0  0  0  0  0  0  0  0  0  0  0
    3.0377    0.3500   -0.1510 C   0  0  0  0  0  0  0  0  0  0  0  0
    2.6563   -0.9895   -0.0571 C   0  0  0  0  0  0  0  0  0  0  0  0
    1.3525   -1.3228    0.3271 C   0  0  0  0  0  0  0  0  0  0  0  0
    0.4196   -0.3170    0.6029 C   0  0  0  0  0  0  0  0  0  0  0  0
   -0.9311   -0.7100    1.0686 C   0  0  0  0  0  0  0  0  0  0  0  0
   -1.0099   -1.5968    1.9194 O   0  0  0  0  0  0  0  0  0  0  0  0
   -2.0570   -0.0923    0.5210 N   0  0  0  0  0  0  0  0  0  0  0  0
   -3.3546   -0.3251    1.1142 C   0  0  0  0  0  0  0  0  0  0  0  0
   -4.3401   -0.1292   -0.0158 C   0  0  0  0  0  0  0  0  0  0  0  0
   -3.6556    0.8904   -0.9046 C   0  0  0  0  0  0  0  0  0  0  0  0
   -2.1937    0.5682   -0.7146 C   0  0  0  0  0  0  0  0  0  0  0  0
   -1.3219    0.8912   -1.5043 O   0  0  0  0  0  0  0  0  0  0  0  0
    0.8053    1.0237    0.5362 C   0  0  0  0  0  0  0  0  0  0  0  0
    2.1083    1.3504    0.1509 C   0  0  0  0  0  0  0  0  0  0  0  0
    6.1596    0.3622   -1.1544 H   0  0  0  0  0  0  0  0  0  0  0  0
    5.4825   -0.8156   -0.0236 H   0  0  0  0  0  0  0  0  0  0  0  0
    4.9142   -0.7486   -1.7377 H   0  0  0  0  0  0  0  0  0  0  0  0
    3.3474   -1.7986   -0.2678 H   0  0  0  0  0  0  0  0  0  0  0  0
    1.0674   -2.3689    0.4148 H   0  0  0  0  0  0  0  0  0  0  0  0
   -3.4344   -1.3207    1.5610 H   0  0  0  0  0  0  0  0  0  0  0  0
   -3.4962    0.4230    1.9024 H   0  0  0  0  0  0  0  0  0  0  0  0
   -5.3257    0.1953    0.3290 H   0  0  0  0  0  0  0  0  0  0  0  0
   -4.4666   -1.0703   -0.5656 H   0  0  0  0  0  0  0  0  0  0  0  0
   -3.9503    0.7760   -1.9505 H   0  0  0  0  0  0  0  0  0  0  0  0
   -3.8405    1.9152   -0.5685 H   0  0  0  0  0  0  0  0  0  0  0  0
    0.1060    1.8192    0.7754 H   0  0  0  0  0  0  0  0  0  0  0  0
    2.4031    2.3950    0.0846 H   0  0  0  0  0  0  0  0  0  0  0  0
  1  2  1  0
  2  3  1  0
  3  4  2  0
  4  5  1  0
  5  6  2  0
  6  7  1  0
  7  8  2  0
  7  9  1  0
  9 10  1  0
 10 11  1  0
 11 12  1  0
 12 13  1  0
 13 14  2  0
  6 15  1  0
 15 16  2  0
 16  3  1  0
 13  9  1  0
  1 17  1  0
  1 18  1  0
  1 19  1  0
  4 20  1  0
  5 21  1  0
 10 22  1  0
 10 23  1  0
 11 24  1  0
 11 25  1  0
 12 26  1  0
 12 27  1  0
 15 28  1  0
 16 29  1  0
M  END
