
     RDKit          3D

 39 41  0  0  0  0  0  0  0  0999 V2000
    7.6622    0.6641    0.4293 C   0  0  0  0  0  0  0  0  0  0  0  0
    6.6598   -0.0059    1.1839 O   0  0  0  0  0  0  0  0  0  0  0  0
    5.3631    0.1810    0.7930 C   0  0  0  0  0  0  0  0  0  0  0  0
    4.4169   -0.4878    1.5753 C   0  0  0  0  0  0  0  0  0  0  0  0
    3.0516   -0.3881    1.2909 C   0  0  0  0  0  0  0  0  0  0  0  0
    2.6230    0.3817    0.2041 C   0  0  0  0  0  0  0  0  0  0  0  0
    1.1804    0.5253   -0.1460 C   0  0  0  0  0  0  0  0  0  0  0  0
    0.8026    1.5865   -0.6269 O   0  0  0  0  0  0  0  0  0  0  0  0
    0.4079   -0.5946    0.0896 N   0  0  0  0  0  0  0  0  0  0  0  0
   -0.9841   -0.7545   -0.1207 C   0  0  0  0  0  0  0  0  0  0  0  0
   -1.8115    0.2624   -0.6045 C   0  0  0  0  0  0  0  0  0  0  0  0
   -3.1841    0.0431   -0.7679 C   0  0  0  0  0  0  0  0  0  0  0  0
   -3.7411   -1.2017   -0.4692 C   0  0  0  0  0  0  0  0  0  0  0  0
   -2.9263   -2.2344   -0.0145 C   0  0  0  0  0  0  0  0  0  0  0  0
   -1.5612   -2.0069    0.1698 C   0  0  0  0  0  0  0  0  0  0  0  0
   -0.5922   -3.3154    0.7639 Cl  0  0  0  0  0  0  0  0  0  0  0  0
   -5.0542   -1.5109   -0.6928 O   0  0  0  0  0  0  0  0  0  0  0  0
   -5.9426   -0.7036    0.0811 C   0  0  0  0  0  0  0  0  0  0  0  0
   -6.1846    0.6561   -0.5555 C   0  0  0  0  0  0  0  0  0  0  0  0
   -4.9432    1.5299   -0.4683 C   0  0  0  0  0  0  0  0  0  0  0  0
   -3.9043    1.0633   -1.3280 O   0  0  0  0  0  0  0  0  0  0  0  0
    3.5679    1.0666   -0.5695 C   0  0  0  0  0  0  0  0  0  0  0  0
    4.9332    0.9627   -0.2796 C   0  0  0  0  0  0  0  0  0  0  0  0
    8.6332    0.4144    0.8677 H   0  0  0  0  0  0  0  0  0  0  0  0
    7.6684    0.3212   -0.6107 H   0  0  0  0  0  0  0  0  0  0  0  0
    7.5399    1.7507    0.4875 H   0  0  0  0  0  0  0  0  0  0  0  0
    4.7488   -1.0849    2.4222 H   0  0  0  0  0  0  0  0  0  0  0  0
    2.3450   -0.8920    1.9439 H   0  0  0  0  0  0  0  0  0  0  0  0
    0.8807   -1.4367    0.4005 H   0  0  0  0  0  0  0  0  0  0  0  0
   -1.4200    1.2383   -0.8732 H   0  0  0  0  0  0  0  0  0  0  0  0
   -3.3582   -3.2100    0.1892 H   0  0  0  0  0  0  0  0  0  0  0  0
   -6.8946   -1.2453    0.1190 H   0  0  0  0  0  0  0  0  0  0  0  0
   -5.5946   -0.6153    1.1192 H   0  0  0  0  0  0  0  0  0  0  0  0
   -7.0124    1.1537   -0.0388 H   0  0  0  0  0  0  0  0  0  0  0  0
   -6.4607    0.5206   -1.6077 H   0  0  0  0  0  0  0  0  0  0  0  0
   -5.1999    2.5377   -0.8140 H   0  0  0  0  0  0  0  0  0  0  0  0
   -4.5868    1.6370    0.5652 H   0  0  0  0  0  0  0  0  0  0  0  0
    3.2423    1.6842   -1.4050 H   0  0  0  0  0  0  0  0  0  0  0  0
    5.6295    1.5074   -0.9088 H   0  0  0  0  0  0  0  0  0  0  0  0
  1  2  1  0
  2  3  1  0
  3  4  2  0
  4  5  1  0
  5  6  2  0
  6  7  1  0
  7  8  2  0
  7  9  1  0
  9 10  1  0
 10 11  2  0
 11 12  1  0
 12 13  2  0
 13 14  1  0
 14 15  2  0
 15 16  1  0
 13 17  1  0
 17 18  1  0
 18 19  1  0
 19 20  1  0
 20 21  1  0
  6 22  1  0
 22 23  2  0
 23  3  1  0
 15 10  1  0
 21 12  1  0
  1 24  1  0
  1 25  1  0
  1 26  1  0
  4 27  1  0
  5 28  1  0
  9 29  1  0
 11 30  1  0
 14 31  1  0
 18 32  1  0
 18 33  1  0
 19 34  1  0
 19 35  1  0
 20 36  1  0
 20 37  1  0
 22 38  1  0
 23 39  1  0
M  END
