
     RDKit          3D

 36 37  0  0  0  0  0  0  0  0999 V2000
   -6.3119   -1.4519   -0.0581 C   0  0  0  0  0  0  0  0  0  0  0  0
   -5.4266   -0.4126    0.3424 O   0  0  0  0  0  0  0  0  0  0  0  0
   -4.0925   -0.6144    0.1175 C   0  0  0  0  0  0  0  0  0  0  0  0
   -3.5236   -1.7399   -0.4653 C   0  0  0  0  0  0  0  0  0  0  0  0
   -2.1378   -1.8088   -0.6329 C   0  0  0  0  0  0  0  0  0  0  0  0
   -1.2943   -0.7580   -0.2231 C   0  0  0  0  0  0  0  0  0  0  0  0
    0.1814   -0.9603   -0.4620 C   0  0  0  0  0  0  0  0  0  0  0  0
    0.5498   -2.0072   -0.9891 O   0  0  0  0  0  0  0  0  0  0  0  0
    1.0157    0.0548   -0.0671 N   0  0  0  0  0  0  0  0  0  0  0  0
    2.4037    0.1428   -0.1618 C   0  0  0  0  0  0  0  0  0  0  0  0
    3.2134   -0.8453   -0.7016 C   0  0  0  0  0  0  0  0  0  0  0  0
    4.5932   -0.6408   -0.7423 C   0  0  0  0  0  0  0  0  0  0  0  0
    5.1323    0.5469   -0.2543 C   0  0  0  0  0  0  0  0  0  0  0  0
    6.6067    0.7905   -0.2462 C   0  0  0  0  0  0  0  0  0  0  0  0
    4.2448    1.4705    0.2797 C   0  0  0  0  0  0  0  0  0  0  0  0
    2.9041    1.2972    0.3312 N   0  0  0  0  0  0  0  0  0  0  0  0
   -1.8724    0.3841    0.3684 C   0  0  0  0  0  0  0  0  0  0  0  0
   -1.0334    1.3965    0.7607 O   0  0  0  0  0  0  0  0  0  0  0  0
   -1.6083    2.5543    1.3581 C   0  0  0  0  0  0  0  0  0  0  0  0
   -3.2664    0.4376    0.5297 C   0  0  0  0  0  0  0  0  0  0  0  0
   -6.2665   -1.6137   -1.1402 H   0  0  0  0  0  0  0  0  0  0  0  0
   -7.3303   -1.1368    0.1889 H   0  0  0  0  0  0  0  0  0  0  0  0
   -6.1073   -2.3775    0.4900 H   0  0  0  0  0  0  0  0  0  0  0  0
   -4.1203   -2.5814   -0.8013 H   0  0  0  0  0  0  0  0  0  0  0  0
   -1.7143   -2.7014   -1.0925 H   0  0  0  0  0  0  0  0  0  0  0  0
    0.6051    0.8779    0.3584 H   0  0  0  0  0  0  0  0  0  0  0  0
    2.8100   -1.7721   -1.0902 H   0  0  0  0  0  0  0  0  0  0  0  0
    5.2342   -1.4146   -1.1571 H   0  0  0  0  0  0  0  0  0  0  0  0
    7.0909    0.2851   -1.0885 H   0  0  0  0  0  0  0  0  0  0  0  0
    6.8268    1.8593   -0.3391 H   0  0  0  0  0  0  0  0  0  0  0  0
    7.0437    0.4196    0.6860 H   0  0  0  0  0  0  0  0  0  0  0  0
    4.5946    2.4109    0.6975 H   0  0  0  0  0  0  0  0  0  0  0  0
   -0.7926    3.2424    1.6004 H   0  0  0  0  0  0  0  0  0  0  0  0
   -2.2787    3.0663    0.6603 H   0  0  0  0  0  0  0  0  0  0  0  0
   -2.1196    2.3028    2.2929 H   0  0  0  0  0  0  0  0  0  0  0  0
   -3.7536    1.2972    0.9800 H   0  0  0  0  0  0  0  0  0  0  0  0
  1  2  1  0
  2  3  1  0
  3  4  2  0
  4  5  1  0
  5  6  2  0
  6  7  1  0
  7  8  2  0
  7  9  1  0
  9 10  1  0
 10 11  2  0
 11 12  1  0
 12 13  2  0
 13 14  1  0
 13 15  1  0
 15 16  2  0
  6 17  1  0
 17 18  1  0
 18 19  1  0
 17 20  2  0
 20  3  1  0
 16 10  1  0
  1 21  1  0
  1 22  1  0
  1 23  1  0
  4 24  1  0
  5 25  1  0
  9 26  1  0
 11 27  1  0
 12 28  1  0
 14 29  1  0
 14 30  1  0
 14 31  1  0
 15 32  1  0
 19 33  1  0
 19 34  1  0
 19 35  1  0
 20 36  1  0
M  END
