
     RDKit          3D

 36 37  0  0  0  0  0  0  0  0999 V2000
    4.9784    2.7432    0.6517 C   0  0  0  0  0  0  0  0  0  0  0  0
    4.3220    2.0469   -0.3997 O   0  0  0  0  0  0  0  0  0  0  0  0
    3.2692    1.2479   -0.0497 C   0  0  0  0  0  0  0  0  0  0  0  0
    2.6534    0.5913   -1.1156 C   0  0  0  0  0  0  0  0  0  0  0  0
    1.5645   -0.2586   -0.9008 C   0  0  0  0  0  0  0  0  0  0  0  0
    1.0710   -0.4746    0.3924 C   0  0  0  0  0  0  0  0  0  0  0  0
   -0.1217   -1.3812    0.6608 C   0  0  0  0  0  0  0  0  0  0  0  0
   -0.0439   -2.7320   -0.0590 C   0  0  0  0  0  0  0  0  0  0  0  0
   -1.0326   -3.6969    0.5210 C   0  0  0  0  0  0  0  0  0  0  0  0
   -2.0705   -4.0801    0.0095 O   0  0  0  0  0  0  0  0  0  0  0  0
   -0.6646   -4.1575    1.7337 O   0  0  0  0  0  0  0  0  0  0  0  0
   -1.3678   -0.6456    0.4812 N   0  0  0  0  0  0  0  0  0  0  0  0
   -1.9348   -0.3177   -0.7331 C   0  0  0  0  0  0  0  0  0  0  0  0
   -1.4960   -0.7429   -1.7981 O   0  0  0  0  0  0  0  0  0  0  0  0
   -3.0889    0.5735   -0.6675 C   0  0  0  0  0  0  0  0  0  0  0  0
   -3.8355    1.0340   -1.7379 C   0  0  0  0  0  0  0  0  0  0  0  0
   -4.8994    1.8935   -1.3397 C   0  0  0  0  0  0  0  0  0  0  0  0
   -4.9349    2.0660    0.0250 C   0  0  0  0  0  0  0  0  0  0  0  0
   -3.6924    1.1961    0.8134 S   0  0  0  0  0  0  0  0  0  0  0  0
    1.6894    0.1998    1.4581 C   0  0  0  0  0  0  0  0  0  0  0  0
    2.7809    1.0500    1.2403 C   0  0  0  0  0  0  0  0  0  0  0  0
    5.4268    2.0461    1.3673 H   0  0  0  0  0  0  0  0  0  0  0  0
    5.7878    3.3316    0.2088 H   0  0  0  0  0  0  0  0  0  0  0  0
    4.2960    3.4389    1.1510 H   0  0  0  0  0  0  0  0  0  0  0  0
    3.0195    0.7464   -2.1278 H   0  0  0  0  0  0  0  0  0  0  0  0
    1.1012   -0.7371   -1.7617 H   0  0  0  0  0  0  0  0  0  0  0  0
   -0.1079   -1.6013    1.7375 H   0  0  0  0  0  0  0  0  0  0  0  0
    0.9535   -3.1778    0.0493 H   0  0  0  0  0  0  0  0  0  0  0  0
   -0.2233   -2.6661   -1.1358 H   0  0  0  0  0  0  0  0  0  0  0  0
   -1.3778   -4.7904    1.9658 H   0  0  0  0  0  0  0  0  0  0  0  0
   -1.7198   -0.1357    1.2808 H   0  0  0  0  0  0  0  0  0  0  0  0
   -3.6191    0.7580   -2.7643 H   0  0  0  0  0  0  0  0  0  0  0  0
   -5.6013    2.3596   -2.0207 H   0  0  0  0  0  0  0  0  0  0  0  0
   -5.6318    2.6620    0.5986 H   0  0  0  0  0  0  0  0  0  0  0  0
    1.3275    0.0686    2.4759 H   0  0  0  0  0  0  0  0  0  0  0  0
    3.2230    1.5421    2.0999 H   0  0  0  0  0  0  0  0  0  0  0  0
  1  2  1  0
  2  3  1  0
  3  4  2  0
  4  5  1  0
  5  6  2  0
  6  7  1  0
  7  8  1  0
  8  9  1  0
  9 10  2  0
  9 11  1  0
  7 12  1  0
 12 13  1  0
 13 14  2  0
 13 15  1  0
 15 16  2  0
 16 17  1  0
 17 18  2  0
 18 19  1  0
  6 20  1  0
 20 21  2  0
 21  3  1  0
 19 15  1  0
  1 22  1  0
  1 23  1  0
  1 24  1  0
  4 25  1  0
  5 26  1  0
  7 27  1  0
  8 28  1  0
  8 29  1  0
 11 30  1  0
 12 31  1  0
 16 32  1  0
 17 33  1  0
 18 34  1  0
 20 35  1  0
 21 36  1  0
M  END
