
     RDKit          3D

 41 42  0  0  0  0  0  0  0  0999 V2000
   -6.7296    2.4351   -0.0867 C   0  0  0  0  0  0  0  0  0  0  0  0
   -5.9649    1.2997    0.2913 O   0  0  0  0  0  0  0  0  0  0  0  0
   -4.6793    1.2112   -0.1825 C   0  0  0  0  0  0  0  0  0  0  0  0
   -4.0756    2.1604   -1.0119 C   0  0  0  0  0  0  0  0  0  0  0  0
   -2.7576    1.9856   -1.4438 C   0  0  0  0  0  0  0  0  0  0  0  0
   -2.0189    0.8685   -1.0452 C   0  0  0  0  0  0  0  0  0  0  0  0
   -0.6448    0.7174   -1.5412 C   0  0  0  0  0  0  0  0  0  0  0  0
    0.3725    0.2649   -0.7916 C   0  0  0  0  0  0  0  0  0  0  0  0
    1.7408    0.1632   -1.3771 C   0  0  0  0  0  0  0  0  0  0  0  0
    1.9597    0.5005   -2.5328 O   0  0  0  0  0  0  0  0  0  0  0  0
    2.6464   -0.3381   -0.4680 N   0  0  0  0  0  0  0  0  0  0  0  0
    4.0341   -0.5802   -0.6463 C   0  0  0  0  0  0  0  0  0  0  0  0
    4.6878   -0.3121   -1.8557 C   0  0  0  0  0  0  0  0  0  0  0  0
    6.0564   -0.5583   -2.0061 C   0  0  0  0  0  0  0  0  0  0  0  0
    6.7969   -1.0770   -0.9503 C   0  0  0  0  0  0  0  0  0  0  0  0
    6.1693   -1.3522    0.2628 C   0  0  0  0  0  0  0  0  0  0  0  0
    4.7936   -1.1088    0.4257 C   0  0  0  0  0  0  0  0  0  0  0  0
    4.1441   -1.4123    1.7313 C   0  0  0  0  0  0  0  0  0  0  0  0
    2.9611   -1.2559    1.9864 O   0  0  0  0  0  0  0  0  0  0  0  0
    4.9933   -1.8935    2.6563 O   0  0  0  0  0  0  0  0  0  0  0  0
   -2.6293   -0.0937   -0.2283 C   0  0  0  0  0  0  0  0  0  0  0  0
   -3.9507    0.0704    0.2097 C   0  0  0  0  0  0  0  0  0  0  0  0
   -4.6171   -0.8205    1.0158 O   0  0  0  0  0  0  0  0  0  0  0  0
   -3.9333   -2.0036    1.4017 C   0  0  0  0  0  0  0  0  0  0  0  0
   -6.8745    2.4707   -1.1714 H   0  0  0  0  0  0  0  0  0  0  0  0
   -6.2742    3.3595    0.2834 H   0  0  0  0  0  0  0  0  0  0  0  0
   -7.7165    2.3429    0.3769 H   0  0  0  0  0  0  0  0  0  0  0  0
   -4.6019    3.0490   -1.3432 H   0  0  0  0  0  0  0  0  0  0  0  0
   -2.3108    2.7393   -2.0896 H   0  0  0  0  0  0  0  0  0  0  0  0
   -0.4741    1.0237   -2.5723 H   0  0  0  0  0  0  0  0  0  0  0  0
    0.2354   -0.0171    0.2448 H   0  0  0  0  0  0  0  0  0  0  0  0
    2.2922   -0.5736    0.4595 H   0  0  0  0  0  0  0  0  0  0  0  0
    4.1591    0.0939   -2.7130 H   0  0  0  0  0  0  0  0  0  0  0  0
    6.5396   -0.3409   -2.9562 H   0  0  0  0  0  0  0  0  0  0  0  0
    7.8606   -1.2669   -1.0712 H   0  0  0  0  0  0  0  0  0  0  0  0
    6.7646   -1.7581    1.0776 H   0  0  0  0  0  0  0  0  0  0  0  0
    4.4390   -2.0424    3.4509 H   0  0  0  0  0  0  0  0  0  0  0  0
   -2.0618   -0.9754    0.0483 H   0  0  0  0  0  0  0  0  0  0  0  0
   -3.6684   -2.6100    0.5293 H   0  0  0  0  0  0  0  0  0  0  0  0
   -4.6128   -2.5952    2.0227 H   0  0  0  0  0  0  0  0  0  0  0  0
   -3.0504   -1.7701    2.0058 H   0  0  0  0  0  0  0  0  0  0  0  0
  1  2  1  0
  2  3  1  0
  3  4  2  0
  4  5  1  0
  5  6  2  0
  6  7  1  0
  7  8  2  3
  8  9  1  0
  9 10  2  0
  9 11  1  0
 11 12  1  0
 12 13  2  0
 13 14  1  0
 14 15  2  0
 15 16  1  0
 16 17  2  0
 17 18  1  0
 18 19  2  0
 18 20  1  0
  6 21  1  0
 21 22  2  0
 22 23  1  0
 23 24  1  0
 22  3  1  0
 17 12  1  0
  1 25  1  0
  1 26  1  0
  1 27  1  0
  4 28  1  0
  5 29  1  0
  7 30  1  0
  8 31  1  0
 11 32  1  0
 13 33  1  0
 14 34  1  0
 15 35  1  0
 16 36  1  0
 20 37  1  0
 21 38  1  0
 24 39  1  0
 24 40  1  0
 24 41  1  0
M  END
