
     RDKit          3D

 46 48  0  0  0  0  0  0  0  0999 V2000
    3.2077   -4.2960    1.1718 C   0  0  0  0  0  0  0  0  0  0  0  0
    2.7386   -3.4623    0.1203 O   0  0  0  0  0  0  0  0  0  0  0  0
    1.6001   -2.7374    0.3545 C   0  0  0  0  0  0  0  0  0  0  0  0
    0.7120   -2.9829    1.4090 C   0  0  0  0  0  0  0  0  0  0  0  0
   -0.4459   -2.2134    1.5574 C   0  0  0  0  0  0  0  0  0  0  0  0
   -0.7259   -1.1999    0.6426 C   0  0  0  0  0  0  0  0  0  0  0  0
   -1.9553   -0.4013    0.8114 C   0  0  0  0  0  0  0  0  0  0  0  0
   -2.2611    0.5615   -0.0014 N   0  0  0  0  0  0  0  0  0  0  0  0
   -3.4433    1.2136    0.2509 N   0  0  0  0  0  0  0  0  0  0  0  0
   -3.5822    2.5203   -0.3994 C   0  0  0  0  0  0  0  0  0  0  0  0
   -4.9291    3.1519   -0.0399 C   0  0  0  0  0  0  0  0  0  0  0  0
   -6.0637    2.3578   -0.4285 O   0  0  0  0  0  0  0  0  0  0  0  0
   -5.7628    0.9634   -0.5932 C   0  0  0  0  0  0  0  0  0  0  0  0
   -4.6966    0.4524    0.3829 C   0  0  0  0  0  0  0  0  0  0  0  0
    0.1482   -0.9518   -0.4178 C   0  0  0  0  0  0  0  0  0  0  0  0
    1.3227   -1.7096   -0.5675 C   0  0  0  0  0  0  0  0  0  0  0  0
    2.2656   -1.4031   -1.7119 C   0  0  0  0  0  0  0  0  0  0  0  0
    3.5506   -0.9621   -1.2659 O   0  0  0  0  0  0  0  0  0  0  0  0
    3.7114    0.3251   -0.8422 C   0  0  0  0  0  0  0  0  0  0  0  0
    2.8168    1.3786   -1.0275 C   0  0  0  0  0  0  0  0  0  0  0  0
    3.1201    2.6542   -0.5366 C   0  0  0  0  0  0  0  0  0  0  0  0
    4.3217    2.8773    0.1318 C   0  0  0  0  0  0  0  0  0  0  0  0
    4.6895    4.4466    0.7323 Cl  0  0  0  0  0  0  0  0  0  0  0  0
    5.2268    1.8363    0.3118 C   0  0  0  0  0  0  0  0  0  0  0  0
    4.9194    0.5650   -0.1782 C   0  0  0  0  0  0  0  0  0  0  0  0
    2.5439   -5.1547    1.3144 H   0  0  0  0  0  0  0  0  0  0  0  0
    3.3334   -3.7334    2.1031 H   0  0  0  0  0  0  0  0  0  0  0  0
    4.1898   -4.6805    0.8802 H   0  0  0  0  0  0  0  0  0  0  0  0
    0.8898   -3.7754    2.1289 H   0  0  0  0  0  0  0  0  0  0  0  0
   -1.1191   -2.4191    2.3854 H   0  0  0  0  0  0  0  0  0  0  0  0
   -2.5950   -0.6534    1.6762 H   0  0  0  0  0  0  0  0  0  0  0  0
   -3.5144    2.3620   -1.4821 H   0  0  0  0  0  0  0  0  0  0  0  0
   -2.7521    3.1569   -0.0773 H   0  0  0  0  0  0  0  0  0  0  0  0
   -5.0318    4.1295   -0.5210 H   0  0  0  0  0  0  0  0  0  0  0  0
   -4.9982    3.3087    1.0428 H   0  0  0  0  0  0  0  0  0  0  0  0
   -6.6960    0.4080   -0.4568 H   0  0  0  0  0  0  0  0  0  0  0  0
   -5.4401    0.8105   -1.6298 H   0  0  0  0  0  0  0  0  0  0  0  0
   -4.5160   -0.6142    0.2173 H   0  0  0  0  0  0  0  0  0  0  0  0
   -5.0342    0.6005    1.4144 H   0  0  0  0  0  0  0  0  0  0  0  0
   -0.0869   -0.1611   -1.1271 H   0  0  0  0  0  0  0  0  0  0  0  0
    1.8330   -0.7084   -2.4414 H   0  0  0  0  0  0  0  0  0  0  0  0
    2.4256   -2.3308   -2.2757 H   0  0  0  0  0  0  0  0  0  0  0  0
    1.8779    1.2528   -1.5532 H   0  0  0  0  0  0  0  0  0  0  0  0
    2.4132    3.4668   -0.6822 H   0  0  0  0  0  0  0  0  0  0  0  0
    6.1673    2.0024    0.8289 H   0  0  0  0  0  0  0  0  0  0  0  0
    5.6244   -0.2511   -0.0370 H   0  0  0  0  0  0  0  0  0  0  0  0
  1  2  1  0
  2  3  1  0
  3  4  2  0
  4  5  1  0
  5  6  2  0
  6  7  1  0
  7  8  2  3
  8  9  1  0
  9 10  1  0
 10 11  1  0
 11 12  1  0
 12 13  1  0
 13 14  1  0
  6 15  1  0
 15 16  2  0
 16 17  1  0
 17 18  1  0
 18 19  1  0
 19 20  2  0
 20 21  1  0
 21 22  2  0
 22 23  1  0
 22 24  1  0
 24 25  2  0
 16  3  1  0
 25 19  1  0
 14  9  1  0
  1 26  1  0
  1 27  1  0
  1 28  1  0
  4 29  1  0
  5 30  1  0
  7 31  1  0
 10 32  1  0
 10 33  1  0
 11 34  1  0
 11 35  1  0
 13 36  1  0
 13 37  1  0
 14 38  1  0
 14 39  1  0
 15 40  1  0
 17 41  1  0
 17 42  1  0
 20 43  1  0
 21 44  1  0
 24 45  1  0
 25 46  1  0
M  END
