
     RDKit          3D

 38 41  0  0  0  0  0  0  0  0999 V2000
    6.3644    1.2363    1.4499 C   0  0  0  0  0  0  0  0  0  0  0  0
    5.8576   -0.0717    1.2190 O   0  0  0  0  0  0  0  0  0  0  0  0
    4.5346   -0.1727    0.8886 C   0  0  0  0  0  0  0  0  0  0  0  0
    3.6289    0.8831    0.7924 C   0  0  0  0  0  0  0  0  0  0  0  0
    2.2936    0.6374    0.4446 C   0  0  0  0  0  0  0  0  0  0  0  0
    1.8409   -0.6667    0.1954 C   0  0  0  0  0  0  0  0  0  0  0  0
    0.4371   -0.9503   -0.1795 C   0  0  0  0  0  0  0  0  0  0  0  0
   -0.5721   -0.3715    0.5028 C   0  0  0  0  0  0  0  0  0  0  0  0
   -2.0213   -0.6439    0.1719 C   0  0  0  0  0  0  0  0  0  0  0  0
   -2.7726    0.5467   -0.4108 C   0  0  0  0  0  0  0  0  0  0  0  0
   -2.2116    1.2974   -1.8537 S   0  0  0  0  0  0  0  0  0  0  0  0
   -3.4897    2.4223   -1.8505 C   0  0  0  0  0  0  0  0  0  0  0  0
   -4.3351    2.2370   -0.7824 C   0  0  0  0  0  0  0  0  0  0  0  0
   -3.9345    1.1494    0.0618 C   0  0  0  0  0  0  0  0  0  0  0  0
   -4.6871    0.7362    1.2861 C   0  0  0  0  0  0  0  0  0  0  0  0
   -2.0618   -1.8732   -0.5965 N   0  0  0  0  0  0  0  0  0  0  0  0
   -3.1424   -2.2607   -1.3789 N   0  0  0  0  0  0  0  0  0  0  0  0
   -2.6644   -2.8845   -2.5217 N   0  0  0  0  0  0  0  0  0  0  0  0
   -1.3961   -2.9283   -2.4831 N   0  0  0  0  0  0  0  0  0  0  0  0
   -1.0040   -2.1859   -1.3942 C   0  0  0  0  0  0  0  0  0  0  0  0
    0.2229   -1.8024   -1.2435 N   0  0  0  0  0  0  0  0  0  0  0  0
    2.7633   -1.7171    0.2783 C   0  0  0  0  0  0  0  0  0  0  0  0
    4.0946   -1.4714    0.6277 C   0  0  0  0  0  0  0  0  0  0  0  0
    7.4293    1.1456    1.6848 H   0  0  0  0  0  0  0  0  0  0  0  0
    6.2731    1.8597    0.5543 H   0  0  0  0  0  0  0  0  0  0  0  0
    5.8728    1.7037    2.3095 H   0  0  0  0  0  0  0  0  0  0  0  0
    3.9266    1.9102    0.9732 H   0  0  0  0  0  0  0  0  0  0  0  0
    1.6147    1.4819    0.3522 H   0  0  0  0  0  0  0  0  0  0  0  0
   -0.3812    0.2921    1.3394 H   0  0  0  0  0  0  0  0  0  0  0  0
   -2.4972   -0.8840    1.1318 H   0  0  0  0  0  0  0  0  0  0  0  0
   -3.5631    3.1666   -2.6320 H   0  0  0  0  0  0  0  0  0  0  0  0
   -5.2083    2.8570   -0.6129 H   0  0  0  0  0  0  0  0  0  0  0  0
   -5.5842    1.3478    1.4270 H   0  0  0  0  0  0  0  0  0  0  0  0
   -5.0012   -0.3095    1.2065 H   0  0  0  0  0  0  0  0  0  0  0  0
   -4.0588    0.8481    2.1755 H   0  0  0  0  0  0  0  0  0  0  0  0
   -3.8110   -1.5262   -1.6161 H   0  0  0  0  0  0  0  0  0  0  0  0
    2.4489   -2.7374    0.0676 H   0  0  0  0  0  0  0  0  0  0  0  0
    4.7943   -2.3012    0.6891 H   0  0  0  0  0  0  0  0  0  0  0  0
  1  2  1  0
  2  3  1  0
  3  4  2  0
  4  5  1  0
  5  6  2  0
  6  7  1  0
  7  8  2  0
  8  9  1  0
  9 10  1  0
 10 11  1  0
 11 12  1  0
 12 13  2  0
 13 14  1  0
 14 15  1  0
  9 16  1  0
 16 17  1  0
 17 18  1  0
 18 19  2  0
 19 20  1  0
 20 21  2  0
  6 22  1  0
 22 23  2  0
 23  3  1  0
 21  7  1  0
 14 10  2  0
 20 16  1  0
  1 24  1  0
  1 25  1  0
  1 26  1  0
  4 27  1  0
  5 28  1  0
  8 29  1  0
  9 30  1  0
 12 31  1  0
 13 32  1  0
 15 33  1  0
 15 34  1  0
 15 35  1  0
 17 36  1  0
 22 37  1  0
 23 38  1  0
M  END
