
     RDKit          3D

 42 44  0  0  0  0  0  0  0  0999 V2000
   -6.6029    2.9558    0.4447 C   0  0  0  0  0  0  0  0  0  0  0  0
   -6.1178    1.6773    0.0603 O   0  0  0  0  0  0  0  0  0  0  0  0
   -4.7576    1.5003    0.0096 C   0  0  0  0  0  0  0  0  0  0  0  0
   -3.8202    2.4956    0.3001 C   0  0  0  0  0  0  0  0  0  0  0  0
   -2.4529    2.2211    0.2194 C   0  0  0  0  0  0  0  0  0  0  0  0
   -2.0083    0.9504   -0.1556 C   0  0  0  0  0  0  0  0  0  0  0  0
   -0.5502    0.6979   -0.2342 C   0  0  0  0  0  0  0  0  0  0  0  0
    0.3406    1.5519    0.1613 N   0  0  0  0  0  0  0  0  0  0  0  0
    1.6071    0.9584   -0.0439 O   0  0  0  0  0  0  0  0  0  0  0  0
    1.4385   -0.1436   -0.9373 C   0  0  0  0  0  0  0  0  0  0  0  0
    2.4290   -1.2640   -0.6266 C   0  0  0  0  0  0  0  0  0  0  0  0
    2.1517   -2.4539   -0.7622 O   0  0  0  0  0  0  0  0  0  0  0  0
    3.6799   -0.8288   -0.2610 N   0  0  0  0  0  0  0  0  0  0  0  0
    4.7711   -1.7468   -0.0459 C   0  0  0  0  0  0  0  0  0  0  0  0
    5.8803   -1.0236    0.6178 C   0  0  0  0  0  0  0  0  0  0  0  0
    6.4414   -1.0958    1.8762 C   0  0  0  0  0  0  0  0  0  0  0  0
    7.4745   -0.1284    1.9094 C   0  0  0  0  0  0  0  0  0  0  0  0
    7.4771    0.4730    0.6731 C   0  0  0  0  0  0  0  0  0  0  0  0
    6.5119   -0.0616   -0.1181 O   0  0  0  0  0  0  0  0  0  0  0  0
    0.0034   -0.5787   -0.7645 C   0  0  0  0  0  0  0  0  0  0  0  0
   -2.9404   -0.0538   -0.4429 C   0  0  0  0  0  0  0  0  0  0  0  0
   -4.3136    0.2140   -0.3626 C   0  0  0  0  0  0  0  0  0  0  0  0
   -5.2985   -0.7060   -0.6281 O   0  0  0  0  0  0  0  0  0  0  0  0
   -4.9042   -2.0298   -0.9581 C   0  0  0  0  0  0  0  0  0  0  0  0
   -6.2936    3.7265   -0.2689 H   0  0  0  0  0  0  0  0  0  0  0  0
   -7.6964    2.9151    0.4357 H   0  0  0  0  0  0  0  0  0  0  0  0
   -6.2885    3.2083    1.4626 H   0  0  0  0  0  0  0  0  0  0  0  0
   -4.1180    3.4968    0.5933 H   0  0  0  0  0  0  0  0  0  0  0  0
   -1.7391    3.0099    0.4510 H   0  0  0  0  0  0  0  0  0  0  0  0
    1.6286    0.2096   -1.9580 H   0  0  0  0  0  0  0  0  0  0  0  0
    3.8687    0.1680   -0.2268 H   0  0  0  0  0  0  0  0  0  0  0  0
    4.4221   -2.5875    0.5630 H   0  0  0  0  0  0  0  0  0  0  0  0
    5.0866   -2.1370   -1.0191 H   0  0  0  0  0  0  0  0  0  0  0  0
    6.1377   -1.7627    2.6714 H   0  0  0  0  0  0  0  0  0  0  0  0
    8.1347    0.1047    2.7329 H   0  0  0  0  0  0  0  0  0  0  0  0
    8.0698    1.2569    0.2224 H   0  0  0  0  0  0  0  0  0  0  0  0
   -0.1246   -1.3655   -0.0144 H   0  0  0  0  0  0  0  0  0  0  0  0
   -0.4479   -0.8825   -1.7118 H   0  0  0  0  0  0  0  0  0  0  0  0
   -2.5925   -1.0410   -0.7209 H   0  0  0  0  0  0  0  0  0  0  0  0
   -4.3327   -2.0495   -1.8917 H   0  0  0  0  0  0  0  0  0  0  0  0
   -4.3424   -2.4910   -0.1392 H   0  0  0  0  0  0  0  0  0  0  0  0
   -5.8121   -2.6209   -1.1121 H   0  0  0  0  0  0  0  0  0  0  0  0
  1  2  1  0
  2  3  1  0
  3  4  2  0
  4  5  1  0
  5  6  2  0
  6  7  1  0
  7  8  2  0
  8  9  1  0
  9 10  1  0
 10 11  1  0
 11 12  2  0
 11 13  1  0
 13 14  1  0
 14 15  1  0
 15 16  2  0
 16 17  1  0
 17 18  2  0
 18 19  1  0
 10 20  1  0
  6 21  1  0
 21 22  2  0
 22 23  1  0
 23 24  1  0
 22  3  1  0
 20  7  1  0
 19 15  1  0
  1 25  1  0
  1 26  1  0
  1 27  1  0
  4 28  1  0
  5 29  1  0
 10 30  1  0
 13 31  1  0
 14 32  1  0
 14 33  1  0
 16 34  1  0
 17 35  1  0
 18 36  1  0
 20 37  1  0
 20 38  1  0
 21 39  1  0
 24 40  1  0
 24 41  1  0
 24 42  1  0
M  END
