
     RDKit          3D

 49 56  0  0  0  0  0  0  0  0999 V2000
   -7.2506   -0.5137   -0.5716 Si  0  0  0  0  0  4  0  0  0  0  0  0
   -5.8622   -1.1002   -1.7496 C   0  0  0  0  0  0  0  0  0  0  0  0
   -4.6419   -0.7435   -1.2917 C   0  0  0  0  0  0  0  0  0  0  0  0
   -4.6472   -0.0170   -0.0546 C   0  0  0  0  0  0  0  0  0  0  0  0
   -5.9180    0.2268    0.5330 C   0  0  0  0  0  0  0  0  0  0  0  0
   -5.8863    0.9057    1.7113 C   0  0  0  0  0  0  0  0  0  0  0  0
   -4.2485    1.2601    2.1236 S   0  0  0  0  0  0  0  0  0  0  0  0
   -3.6186    0.4991    0.6984 C   0  0  0  0  0  0  0  0  0  0  0  0
   -2.1875    0.4939    0.4722 C   0  0  0  0  0  0  0  0  0  0  0  0
   -1.2273   -0.1223    1.3047 C   0  0  0  0  0  0  0  0  0  0  0  0
    0.2296   -0.1549    1.1174 C   0  0  0  0  0  0  0  0  0  0  0  0
    1.0956   -0.7443    2.0977 C   0  0  0  0  0  0  0  0  0  0  0  0
    0.6043   -1.2797    3.3253 C   0  0  0  0  0  0  0  0  0  0  0  0
    1.4209   -1.8360    4.3090 C   0  0  0  0  0  0  0  0  0  0  0  0
    2.7795   -1.8771    4.1067 C   0  0  0  0  0  0  0  0  0  0  0  0
    3.3033   -1.3645    2.9217 C   0  0  0  0  0  0  0  0  0  0  0  0
    2.5058   -0.7917    1.8878 C   0  0  0  0  0  0  0  0  0  0  0  0
    3.0827   -0.2995    0.6668 C   0  0  0  0  0  0  0  0  0  0  0  0
    4.4860   -0.3727    0.4077 C   0  0  0  0  0  0  0  0  0  0  0  0
    5.0589    0.0322   -0.8102 C   0  0  0  0  0  0  0  0  0  0  0  0
    6.3778    0.0608   -1.3378 C   0  0  0  0  0  0  0  0  0  0  0  0
    6.2985    0.5367   -2.6271 C   0  0  0  0  0  0  0  0  0  0  0  0
    4.9791    0.7905   -2.8969 N   0  0  0  0  0  0  0  0  0  0  0  0
    4.2101    0.5024   -1.7931 C   0  0  0  0  0  0  0  0  0  0  0  0
    2.8319    0.6087   -1.5856 C   0  0  0  0  0  0  0  0  0  0  0  0
    2.2494    0.2637   -0.3335 C   0  0  0  0  0  0  0  0  0  0  0  0
    0.8385    0.4175   -0.0615 C   0  0  0  0  0  0  0  0  0  0  0  0
   -0.1522    1.1189   -0.8378 C   0  0  0  0  0  0  0  0  0  0  0  0
    0.0134    1.9919   -1.8897 C   0  0  0  0  0  0  0  0  0  0  0  0
   -1.1903    2.4614   -2.3314 O   0  0  0  0  0  0  0  0  0  0  0  0
   -2.1481    1.9354   -1.5219 C   0  0  0  0  0  0  0  0  0  0  0  0
   -1.5585    1.1360   -0.5770 C   0  0  0  0  0  0  0  0  0  0  0  0
   -8.1165    0.4945   -1.2319 H   0  0  0  0  0  0  0  0  0  0  0  0
   -7.9620   -1.6688    0.0299 H   0  0  0  0  0  0  0  0  0  0  0  0
   -6.0933   -1.6481   -2.6488 H   0  0  0  0  0  0  0  0  0  0  0  0
   -3.7219   -0.9878   -1.8112 H   0  0  0  0  0  0  0  0  0  0  0  0
   -6.6969    1.2149    2.3571 H   0  0  0  0  0  0  0  0  0  0  0  0
   -1.6563   -0.6245    2.1700 H   0  0  0  0  0  0  0  0  0  0  0  0
   -0.4535   -1.2674    3.5679 H   0  0  0  0  0  0  0  0  0  0  0  0
    0.9867   -2.2253    5.2256 H   0  0  0  0  0  0  0  0  0  0  0  0
    3.4381   -2.3022    4.8586 H   0  0  0  0  0  0  0  0  0  0  0  0
    4.3830   -1.4313    2.8301 H   0  0  0  0  0  0  0  0  0  0  0  0
    5.1807   -0.7650    1.1398 H   0  0  0  0  0  0  0  0  0  0  0  0
    7.2845   -0.2422   -0.8311 H   0  0  0  0  0  0  0  0  0  0  0  0
    7.0616    0.7100   -3.3739 H   0  0  0  0  0  0  0  0  0  0  0  0
    4.6206    1.1474   -3.7719 H   0  0  0  0  0  0  0  0  0  0  0  0
    2.2241    0.9086   -2.4264 H   0  0  0  0  0  0  0  0  0  0  0  0
    0.8541    2.4130   -2.4184 H   0  0  0  0  0  0  0  0  0  0  0  0
   -3.1614    2.2493   -1.7313 H   0  0  0  0  0  0  0  0  0  0  0  0
  1  2  1  0
  2  3  2  0
  3  4  1  0
  4  5  1  0
  5  6  2  0
  6  7  1  0
  7  8  1  0
  8  9  1  0
  9 10  2  0
 10 11  1  0
 11 12  2  0
 12 13  1  0
 13 14  2  0
 14 15  1  0
 15 16  2  0
 16 17  1  0
 17 18  2  0
 18 19  1  0
 19 20  2  0
 20 21  1  0
 21 22  2  0
 22 23  1  0
 23 24  1  0
 24 25  2  0
 25 26  1  0
 26 27  2  0
 27 28  1  0
 28 29  2  0
 29 30  1  0
 30 31  1  0
 31 32  2  0
  5  1  1  0
 32  9  1  0
  8  4  2  0
 27 11  1  0
 32 28  1  0
 17 12  1  0
 26 18  1  0
 24 20  1  0
  1 33  1  0
  1 34  1  0
  2 35  1  0
  3 36  1  0
  6 37  1  0
 10 38  1  0
 13 39  1  0
 14 40  1  0
 15 41  1  0
 16 42  1  0
 19 43  1  0
 21 44  1  0
 22 45  1  0
 23 46  1  0
 25 47  1  0
 29 48  1  0
 31 49  1  0
M  END
