
     RDKit          3D

 39 40  0  0  0  0  0  0  0  0999 V2000
   -3.3823   -3.0058   -2.5440 C   0  0  0  0  0  0  0  0  0  0  0  0
   -2.9631   -1.7760   -1.9656 O   0  0  0  0  0  0  0  0  0  0  0  0
   -1.6701   -1.7017   -1.5130 C   0  0  0  0  0  0  0  0  0  0  0  0
   -0.7474   -2.7499   -1.5653 C   0  0  0  0  0  0  0  0  0  0  0  0
    0.5560   -2.5752   -1.0882 C   0  0  0  0  0  0  0  0  0  0  0  0
    0.9703   -1.3476   -0.5563 C   0  0  0  0  0  0  0  0  0  0  0  0
    2.3835   -1.1849   -0.0332 C   0  0  0  0  0  0  0  0  0  0  0  0
    2.4093   -0.9747    1.4162 N   0  0  0  0  0  0  0  0  0  0  0  0
    3.6735   -0.2603    1.7317 C   0  0  0  0  0  0  0  0  0  0  0  0
    3.6302    0.3493    3.1264 C   0  0  0  0  0  0  0  0  0  0  0  0
    4.6004    0.6318    3.8122 O   0  0  0  0  0  0  0  0  0  0  0  0
    2.3835    0.6494    3.5532 O   0  0  0  0  0  0  0  0  0  0  0  0
    3.8729    0.8611    0.7235 C   0  0  0  0  0  0  0  0  0  0  0  0
    3.2889    0.1678   -0.8357 S   0  0  0  0  0  0  0  0  0  0  0  0
    0.0330   -0.3006   -0.5036 C   0  0  0  0  0  0  0  0  0  0  0  0
   -1.2861   -0.4636   -0.9655 C   0  0  0  0  0  0  0  0  0  0  0  0
   -2.2818    0.6746   -0.9168 C   0  0  0  0  0  0  0  0  0  0  0  0
   -1.7990    1.7683   -0.1302 O   0  0  0  0  0  0  0  0  0  0  0  0
   -2.7290    2.8600   -0.1172 C   0  0  0  0  0  0  0  0  0  0  0  0
   -2.2372    4.0230    0.7379 C   0  0  0  0  0  0  0  0  0  0  0  0
   -2.0715    3.6642    2.0300 F   0  0  0  0  0  0  0  0  0  0  0  0
   -1.0650    4.5211    0.2871 F   0  0  0  0  0  0  0  0  0  0  0  0
   -3.1396    5.0339    0.7146 F   0  0  0  0  0  0  0  0  0  0  0  0
   -3.3458   -3.8191   -1.8120 H   0  0  0  0  0  0  0  0  0  0  0  0
   -4.4239   -2.8883   -2.8579 H   0  0  0  0  0  0  0  0  0  0  0  0
   -2.7919   -3.2453   -3.4345 H   0  0  0  0  0  0  0  0  0  0  0  0
   -1.0070   -3.7220   -1.9710 H   0  0  0  0  0  0  0  0  0  0  0  0
    1.2485   -3.4134   -1.1363 H   0  0  0  0  0  0  0  0  0  0  0  0
    2.9529   -2.0968   -0.2487 H   0  0  0  0  0  0  0  0  0  0  0  0
    1.6403   -0.3497    1.6697 H   0  0  0  0  0  0  0  0  0  0  0  0
    4.4966   -0.9857    1.7082 H   0  0  0  0  0  0  0  0  0  0  0  0
    2.5158    1.0245    4.4493 H   0  0  0  0  0  0  0  0  0  0  0  0
    3.2805    1.7510    0.9620 H   0  0  0  0  0  0  0  0  0  0  0  0
    4.9238    1.1549    0.6449 H   0  0  0  0  0  0  0  0  0  0  0  0
    0.3359    0.6634   -0.0971 H   0  0  0  0  0  0  0  0  0  0  0  0
   -2.4688    1.0225   -1.9396 H   0  0  0  0  0  0  0  0  0  0  0  0
   -3.2172    0.3197   -0.4688 H   0  0  0  0  0  0  0  0  0  0  0  0
   -3.6888    2.5087    0.2776 H   0  0  0  0  0  0  0  0  0  0  0  0
   -2.8803    3.2113   -1.1440 H   0  0  0  0  0  0  0  0  0  0  0  0
  1  2  1  0
  2  3  1  0
  3  4  2  0
  4  5  1  0
  5  6  2  0
  6  7  1  0
  7  8  1  0
  8  9  1  0
  9 10  1  0
 10 11  2  0
 10 12  1  0
  9 13  1  0
 13 14  1  0
  6 15  1  0
 15 16  2  0
 16 17  1  0
 17 18  1  0
 18 19  1  0
 19 20  1  0
 20 21  1  0
 20 22  1  0
 20 23  1  0
 16  3  1  0
 14  7  1  0
  1 24  1  0
  1 25  1  0
  1 26  1  0
  4 27  1  0
  5 28  1  0
  7 29  1  0
  8 30  1  0
  9 31  1  0
 12 32  1  0
 13 33  1  0
 13 34  1  0
 15 35  1  0
 17 36  1  0
 17 37  1  0
 19 38  1  0
 19 39  1  0
M  END
