
     RDKit          3D

 34 37  0  0  0  0  0  0  0  0999 V2000
    6.6358    0.1219   -0.2889 C   0  0  0  0  0  0  0  0  0  0  0  0
    5.6302    1.0182    0.1671 O   0  0  0  0  0  0  0  0  0  0  0  0
    4.3323    0.6037    0.0544 C   0  0  0  0  0  0  0  0  0  0  0  0
    3.3843    1.5285    0.5001 C   0  0  0  0  0  0  0  0  0  0  0  0
    2.0194    1.2354    0.4427 C   0  0  0  0  0  0  0  0  0  0  0  0
    1.5915    0.0042   -0.0599 C   0  0  0  0  0  0  0  0  0  0  0  0
    0.1426   -0.3052   -0.1109 C   0  0  0  0  0  0  0  0  0  0  0  0
   -0.7823    0.6077    0.1206 N   0  0  0  0  0  0  0  0  0  0  0  0
   -1.9610   -0.1035    0.0464 C   0  0  0  0  0  0  0  0  0  0  0  0
   -3.2123    0.3240    0.2189 C   0  0  0  0  0  0  0  0  0  0  0  0
   -3.6343    1.6732    0.5073 C   0  0  0  0  0  0  0  0  0  0  0  0
   -4.9365    1.9556    0.6526 C   0  0  0  0  0  0  0  0  0  0  0  0
   -5.9445    0.9267    0.5259 C   0  0  0  0  0  0  0  0  0  0  0  0
   -5.6397   -0.3531    0.2644 C   0  0  0  0  0  0  0  0  0  0  0  0
   -4.2208   -0.7803    0.0896 C   0  0  0  0  0  0  0  0  0  0  0  0
   -3.9632   -2.0309   -0.1479 N   0  0  0  0  0  0  0  0  0  0  0  0
   -2.6463   -2.4132   -0.3078 C   0  0  0  0  0  0  0  0  0  0  0  0
   -2.3228   -3.5834   -0.5014 O   0  0  0  0  0  0  0  0  0  0  0  0
   -1.7071   -1.4102   -0.2147 N   0  0  0  0  0  0  0  0  0  0  0  0
   -0.3390   -1.5790   -0.3948 N   0  0  0  0  0  0  0  0  0  0  0  0
    2.5359   -0.9235   -0.5125 C   0  0  0  0  0  0  0  0  0  0  0  0
    3.9030   -0.6232   -0.4541 C   0  0  0  0  0  0  0  0  0  0  0  0
    6.6282   -0.8072    0.2905 H   0  0  0  0  0  0  0  0  0  0  0  0
    6.5296   -0.0785   -1.3602 H   0  0  0  0  0  0  0  0  0  0  0  0
    7.6067    0.6024   -0.1348 H   0  0  0  0  0  0  0  0  0  0  0  0
    3.7116    2.4880    0.8940 H   0  0  0  0  0  0  0  0  0  0  0  0
    1.2997    1.9715    0.7932 H   0  0  0  0  0  0  0  0  0  0  0  0
   -2.8765    2.4459    0.5998 H   0  0  0  0  0  0  0  0  0  0  0  0
   -5.2645    2.9686    0.8680 H   0  0  0  0  0  0  0  0  0  0  0  0
   -6.9815    1.2255    0.6515 H   0  0  0  0  0  0  0  0  0  0  0  0
   -6.3991   -1.1206    0.1716 H   0  0  0  0  0  0  0  0  0  0  0  0
    0.0474   -2.3441    0.1533 H   0  0  0  0  0  0  0  0  0  0  0  0
    2.2287   -1.8783   -0.9305 H   0  0  0  0  0  0  0  0  0  0  0  0
    4.6043   -1.3669   -0.8185 H   0  0  0  0  0  0  0  0  0  0  0  0
  1  2  1  0
  2  3  1  0
  3  4  2  0
  4  5  1  0
  5  6  2  0
  6  7  1  0
  7  8  2  0
  8  9  1  0
  9 10  2  0
 10 11  1  0
 11 12  2  0
 12 13  1  0
 13 14  2  0
 14 15  1  0
 15 16  2  0
 16 17  1  0
 17 18  2  0
 17 19  1  0
 19 20  1  0
  6 21  1  0
 21 22  2  0
 22  3  1  0
 20  7  1  0
 19  9  1  0
 15 10  1  0
  1 23  1  0
  1 24  1  0
  1 25  1  0
  4 26  1  0
  5 27  1  0
 11 28  1  0
 12 29  1  0
 13 30  1  0
 14 31  1  0
 20 32  1  0
 21 33  1  0
 22 34  1  0
M  END
