
     RDKit          3D

 36 38  0  0  0  0  0  0  0  0999 V2000
   -6.1360    0.8943    1.5543 C   0  0  0  0  0  0  0  0  0  0  0  0
   -5.2093    1.6081    0.7463 O   0  0  0  0  0  0  0  0  0  0  0  0
   -3.9856    1.0294    0.5506 C   0  0  0  0  0  0  0  0  0  0  0  0
   -3.1022    1.7815   -0.2274 C   0  0  0  0  0  0  0  0  0  0  0  0
   -1.8173    1.3078   -0.5063 C   0  0  0  0  0  0  0  0  0  0  0  0
   -1.4031    0.0648   -0.0164 C   0  0  0  0  0  0  0  0  0  0  0  0
   -0.0549   -0.4190   -0.2991 C   0  0  0  0  0  0  0  0  0  0  0  0
    0.9977    0.3371    0.0476 N   0  0  0  0  0  0  0  0  0  0  0  0
    2.0939   -0.3750   -0.2990 N   0  0  0  0  0  0  0  0  0  0  0  0
    3.4015    0.1317   -0.0529 C   0  0  0  0  0  0  0  0  0  0  0  0
    4.5448   -0.5964   -0.4117 C   0  0  0  0  0  0  0  0  0  0  0  0
    5.8162   -0.0727   -0.1574 C   0  0  0  0  0  0  0  0  0  0  0  0
    5.9550    1.1727    0.4530 C   0  0  0  0  0  0  0  0  0  0  0  0
    4.8234    1.9013    0.8125 C   0  0  0  0  0  0  0  0  0  0  0  0
    3.5502    1.3852    0.5618 C   0  0  0  0  0  0  0  0  0  0  0  0
    1.7448   -1.5660   -0.8835 C   0  0  0  0  0  0  0  0  0  0  0  0
    0.3631   -1.6288   -0.9192 C   0  0  0  0  0  0  0  0  0  0  0  0
   -0.3782   -2.7234   -1.5011 C   0  0  0  0  0  0  0  0  0  0  0  0
    0.1197   -3.7532   -1.9350 O   0  0  0  0  0  0  0  0  0  0  0  0
   -1.7128   -2.5517   -1.5701 O   0  0  0  0  0  0  0  0  0  0  0  0
   -2.2838   -0.6822    0.7746 C   0  0  0  0  0  0  0  0  0  0  0  0
   -3.5708   -0.2044    1.0534 C   0  0  0  0  0  0  0  0  0  0  0  0
   -7.0516    1.4902    1.6189 H   0  0  0  0  0  0  0  0  0  0  0  0
   -6.3964   -0.0675    1.1003 H   0  0  0  0  0  0  0  0  0  0  0  0
   -5.7531    0.7613    2.5716 H   0  0  0  0  0  0  0  0  0  0  0  0
   -3.4139    2.7480   -0.6155 H   0  0  0  0  0  0  0  0  0  0  0  0
   -1.1400    1.9148   -1.1028 H   0  0  0  0  0  0  0  0  0  0  0  0
    4.4866   -1.5697   -0.8884 H   0  0  0  0  0  0  0  0  0  0  0  0
    6.7017   -0.6390   -0.4365 H   0  0  0  0  0  0  0  0  0  0  0  0
    6.9453    1.5758    0.6489 H   0  0  0  0  0  0  0  0  0  0  0  0
    4.9289    2.8726    1.2891 H   0  0  0  0  0  0  0  0  0  0  0  0
    2.6810    1.9730    0.8528 H   0  0  0  0  0  0  0  0  0  0  0  0
    2.4769   -2.2737   -1.2423 H   0  0  0  0  0  0  0  0  0  0  0  0
   -2.0270   -3.3671   -2.0108 H   0  0  0  0  0  0  0  0  0  0  0  0
   -1.9753   -1.6404    1.1852 H   0  0  0  0  0  0  0  0  0  0  0  0
   -4.2193   -0.8193    1.6679 H   0  0  0  0  0  0  0  0  0  0  0  0
  1  2  1  0
  2  3  1  0
  3  4  2  0
  4  5  1  0
  5  6  2  0
  6  7  1  0
  7  8  2  0
  8  9  1  0
  9 10  1  0
 10 11  2  0
 11 12  1  0
 12 13  2  0
 13 14  1  0
 14 15  2  0
  9 16  1  0
 16 17  2  0
 17 18  1  0
 18 19  2  0
 18 20  1  0
  6 21  1  0
 21 22  2  0
 22  3  1  0
 17  7  1  0
 15 10  1  0
  1 23  1  0
  1 24  1  0
  1 25  1  0
  4 26  1  0
  5 27  1  0
 11 28  1  0
 12 29  1  0
 13 30  1  0
 14 31  1  0
 15 32  1  0
 16 33  1  0
 20 34  1  0
 21 35  1  0
 22 36  1  0
M  END
