
     RDKit          3D

 38 39  0  0  0  0  0  0  0  0999 V2000
   -3.7413   -0.5484   -3.2084 C   0  0  0  0  0  0  0  0  0  0  0  0
   -3.9026   -0.7059   -1.8054 O   0  0  0  0  0  0  0  0  0  0  0  0
   -2.9568   -0.1418   -0.9873 C   0  0  0  0  0  0  0  0  0  0  0  0
   -1.8973    0.6530   -1.4331 C   0  0  0  0  0  0  0  0  0  0  0  0
   -0.9780    1.1852   -0.5253 C   0  0  0  0  0  0  0  0  0  0  0  0
   -1.0996    0.9238    0.8435 C   0  0  0  0  0  0  0  0  0  0  0  0
   -0.0726    1.4447    1.8169 C   0  0  0  0  0  0  0  0  0  0  0  0
    0.9955    0.4021    2.1538 C   0  0  0  0  0  0  0  0  0  0  0  0
    1.8100    0.0463    1.0060 N   0  0  0  0  0  4  0  0  0  0  0  0
    2.7979    0.8453    0.4962 C   0  0  0  0  0  0  0  0  0  0  0  0
    3.3103    0.1446   -0.5726 C   0  0  0  0  0  0  0  0  0  0  0  0
    4.2737    0.4981   -1.4360 N   0  0  0  0  0  0  0  0  0  0  0  0
    5.4939    0.0864   -1.2296 C   0  0  0  0  0  0  0  0  0  0  0  0
    5.8135   -0.8589   -0.0559 C   0  0  0  0  0  0  0  0  0  0  0  0
    6.4642    0.4245   -1.9280 O   0  0  0  0  0  1  0  0  0  0  0  0
    2.6019   -1.0440   -0.6593 O   0  0  0  0  0  0  0  0  0  0  0  0
    1.6519   -1.0958    0.3745 N   0  0  0  0  0  0  0  0  0  0  0  0
   -2.1699    0.1358    1.2946 C   0  0  0  0  0  0  0  0  0  0  0  0
   -3.1025   -0.3901    0.3910 C   0  0  0  0  0  0  0  0  0  0  0  0
   -4.1633   -1.1813    0.7548 O   0  0  0  0  0  0  0  0  0  0  0  0
   -4.5450   -1.1843    2.1227 C   0  0  0  0  0  0  0  0  0  0  0  0
   -2.7934   -0.9778   -3.5493 H   0  0  0  0  0  0  0  0  0  0  0  0
   -4.5505   -1.0958   -3.7015 H   0  0  0  0  0  0  0  0  0  0  0  0
   -3.8272    0.5038   -3.4983 H   0  0  0  0  0  0  0  0  0  0  0  0
   -1.7599    0.8796   -2.4862 H   0  0  0  0  0  0  0  0  0  0  0  0
   -0.1699    1.8029   -0.9141 H   0  0  0  0  0  0  0  0  0  0  0  0
    0.3949    2.3499    1.4099 H   0  0  0  0  0  0  0  0  0  0  0  0
   -0.5807    1.7561    2.7381 H   0  0  0  0  0  0  0  0  0  0  0  0
    0.5379   -0.5090    2.5590 H   0  0  0  0  0  0  0  0  0  0  0  0
    1.6617    0.7965    2.9309 H   0  0  0  0  0  0  0  0  0  0  0  0
    3.0942    1.8147    0.8623 H   0  0  0  0  0  0  0  0  0  0  0  0
    5.2183   -1.7739   -0.1391 H   0  0  0  0  0  0  0  0  0  0  0  0
    6.8707   -1.1482   -0.0437 H   0  0  0  0  0  0  0  0  0  0  0  0
    5.5901   -0.3629    0.8942 H   0  0  0  0  0  0  0  0  0  0  0  0
   -2.2635   -0.0682    2.3567 H   0  0  0  0  0  0  0  0  0  0  0  0
   -4.7049   -0.1674    2.4967 H   0  0  0  0  0  0  0  0  0  0  0  0
   -5.4942   -1.7226    2.2046 H   0  0  0  0  0  0  0  0  0  0  0  0
   -3.8074   -1.7170    2.7312 H   0  0  0  0  0  0  0  0  0  0  0  0
  1  2  1  0
  2  3  1  0
  3  4  2  0
  4  5  1  0
  5  6  2  0
  6  7  1  0
  7  8  1  0
  8  9  1  0
  9 10  1  0
 10 11  2  0
 11 12  1  0
 12 13  2  3
 13 14  1  0
 13 15  1  0
 11 16  1  0
 16 17  1  0
  6 18  1  0
 18 19  2  0
 19 20  1  0
 20 21  1  0
 19  3  1  0
 17  9  2  0
  1 22  1  0
  1 23  1  0
  1 24  1  0
  4 25  1  0
  5 26  1  0
  7 27  1  0
  7 28  1  0
  8 29  1  0
  8 30  1  0
 10 31  1  0
 14 32  1  0
 14 33  1  0
 14 34  1  0
 18 35  1  0
 21 36  1  0
 21 37  1  0
 21 38  1  0
M  CHG  2   9   1  15  -1
M  END
