
     RDKit          3D

 39 41  0  0  0  0  0  0  0  0999 V2000
   -5.6565   -2.1339   -2.3017 C   0  0  0  0  0  0  0  0  0  0  0  0
   -4.8371   -2.5468   -1.2180 O   0  0  0  0  0  0  0  0  0  0  0  0
   -3.5810   -1.9994   -1.1249 C   0  0  0  0  0  0  0  0  0  0  0  0
   -3.0642   -1.0515   -2.0141 C   0  0  0  0  0  0  0  0  0  0  0  0
   -1.7730   -0.5472   -1.8405 C   0  0  0  0  0  0  0  0  0  0  0  0
   -0.9779   -0.9861   -0.7784 C   0  0  0  0  0  0  0  0  0  0  0  0
    0.4065   -0.4228   -0.5784 C   0  0  0  0  0  0  0  0  0  0  0  0
    0.3889    0.8116    0.3264 C   0  0  0  0  0  0  0  0  0  0  0  0
    1.7245    1.3413    0.5293 N   0  0  0  0  0  0  0  0  0  0  0  0
    2.5767    0.9136    1.5087 C   0  0  0  0  0  0  0  0  0  0  0  0
    2.3974    0.0772    2.3727 O   0  0  0  0  0  0  0  0  0  0  0  0
    3.8241    1.6416    1.3259 C   0  0  0  0  0  0  0  0  0  0  0  0
    5.0114    1.6294    2.0247 C   0  0  0  0  0  0  0  0  0  0  0  0
    6.0247    2.4651    1.5489 C   0  0  0  0  0  0  0  0  0  0  0  0
    5.7894    3.2508    0.4116 C   0  0  0  0  0  0  0  0  0  0  0  0
    4.6243    3.2634   -0.2815 N   0  0  0  0  0  0  0  0  0  0  0  0
    3.6825    2.4451    0.2203 C   0  0  0  0  0  0  0  0  0  0  0  0
    2.3305    2.2341   -0.3188 C   0  0  0  0  0  0  0  0  0  0  0  0
    1.8673    2.7355   -1.3260 O   0  0  0  0  0  0  0  0  0  0  0  0
   -1.4959   -1.9325    0.1183 C   0  0  0  0  0  0  0  0  0  0  0  0
   -2.7895   -2.4439   -0.0470 C   0  0  0  0  0  0  0  0  0  0  0  0
   -3.3689   -3.3711    0.7845 O   0  0  0  0  0  0  0  0  0  0  0  0
   -2.5985   -3.8516    1.8762 C   0  0  0  0  0  0  0  0  0  0  0  0
   -5.2031   -2.3964   -3.2632 H   0  0  0  0  0  0  0  0  0  0  0  0
   -5.8756   -1.0626   -2.2455 H   0  0  0  0  0  0  0  0  0  0  0  0
   -6.6069   -2.6709   -2.2258 H   0  0  0  0  0  0  0  0  0  0  0  0
   -3.6418   -0.6813   -2.8543 H   0  0  0  0  0  0  0  0  0  0  0  0
   -1.3942    0.1928   -2.5435 H   0  0  0  0  0  0  0  0  0  0  0  0
    0.8469   -0.1736   -1.5526 H   0  0  0  0  0  0  0  0  0  0  0  0
    1.0589   -1.1967   -0.1535 H   0  0  0  0  0  0  0  0  0  0  0  0
   -0.0343    0.5582    1.3057 H   0  0  0  0  0  0  0  0  0  0  0  0
   -0.2328    1.5982   -0.1175 H   0  0  0  0  0  0  0  0  0  0  0  0
    5.1484    1.0007    2.8979 H   0  0  0  0  0  0  0  0  0  0  0  0
    6.9878    2.5086    2.0497 H   0  0  0  0  0  0  0  0  0  0  0  0
    6.5642    3.9081    0.0223 H   0  0  0  0  0  0  0  0  0  0  0  0
   -0.8680   -2.2562    0.9428 H   0  0  0  0  0  0  0  0  0  0  0  0
   -2.3489   -3.0423    2.5702 H   0  0  0  0  0  0  0  0  0  0  0  0
   -3.2081   -4.5790    2.4211 H   0  0  0  0  0  0  0  0  0  0  0  0
   -1.6981   -4.3682    1.5280 H   0  0  0  0  0  0  0  0  0  0  0  0
  1  2  1  0
  2  3  1  0
  3  4  2  0
  4  5  1  0
  5  6  2  0
  6  7  1  0
  7  8  1  0
  8  9  1  0
  9 10  1  0
 10 11  2  0
 10 12  1  0
 12 13  2  0
 13 14  1  0
 14 15  2  0
 15 16  1  0
 16 17  2  0
 17 18  1  0
 18 19  2  0
  6 20  1  0
 20 21  2  0
 21 22  1  0
 22 23  1  0
 21  3  1  0
 18  9  1  0
 17 12  1  0
  1 24  1  0
  1 25  1  0
  1 26  1  0
  4 27  1  0
  5 28  1  0
  7 29  1  0
  7 30  1  0
  8 31  1  0
  8 32  1  0
 13 33  1  0
 14 34  1  0
 15 35  1  0
 20 36  1  0
 23 37  1  0
 23 38  1  0
 23 39  1  0
M  END
