
     RDKit          3D

 48 49  0  0  0  0  0  0  0  0999 V2000
   -7.4718    1.5586    1.8159 C   0  0  0  0  0  0  0  0  0  0  0  0
   -7.0585    0.4750    0.9965 O   0  0  0  0  0  0  0  0  0  0  0  0
   -5.7145    0.3425    0.7469 C   0  0  0  0  0  0  0  0  0  0  0  0
   -4.7312    1.2100    1.2328 C   0  0  0  0  0  0  0  0  0  0  0  0
   -3.3852    0.9975    0.9258 C   0  0  0  0  0  0  0  0  0  0  0  0
   -3.0010   -0.0864    0.1309 C   0  0  0  0  0  0  0  0  0  0  0  0
   -1.5480   -0.2952   -0.2167 C   0  0  0  0  0  0  0  0  0  0  0  0
   -1.1397    0.5108   -1.4520 C   0  0  0  0  0  0  0  0  0  0  0  0
    0.2455    0.2982   -1.8077 N   0  0  0  0  0  0  0  0  0  0  0  0
    1.2815    0.9211   -1.1493 C   0  0  0  0  0  0  0  0  0  0  0  0
    1.1726    1.7315   -0.2404 O   0  0  0  0  0  0  0  0  0  0  0  0
    2.6787    0.4928   -1.6555 C   0  0  0  0  0  0  0  0  0  0  0  0
    2.7812   -0.3741   -2.5132 O   0  0  0  0  0  0  0  0  0  0  0  0
    3.7186    1.1524   -1.0435 N   0  0  0  0  0  0  0  0  0  0  0  0
    5.0966    0.7405   -1.2210 C   0  0  0  0  0  0  0  0  0  0  0  0
    5.4566   -0.4560   -0.3254 C   0  0  0  0  0  0  0  0  0  0  0  0
    6.8769   -0.9531   -0.5575 C   0  0  0  0  0  0  0  0  0  0  0  0
    7.6739   -0.1832    0.4656 C   0  0  0  0  0  0  0  0  0  0  0  0
    6.7067   -0.1157    1.6249 C   0  0  0  0  0  0  0  0  0  0  0  0
    5.3934   -0.0332    1.0559 O   0  0  0  0  0  0  0  0  0  0  0  0
   -3.9859   -0.9554   -0.3614 C   0  0  0  0  0  0  0  0  0  0  0  0
   -5.3383   -0.7519   -0.0575 C   0  0  0  0  0  0  0  0  0  0  0  0
   -6.3618   -1.5547   -0.4990 O   0  0  0  0  0  0  0  0  0  0  0  0
   -6.0188   -2.7046   -1.2578 C   0  0  0  0  0  0  0  0  0  0  0  0
   -7.2258    2.5201    1.3534 H   0  0  0  0  0  0  0  0  0  0  0  0
   -7.0438    1.4805    2.8208 H   0  0  0  0  0  0  0  0  0  0  0  0
   -8.5604    1.5071    1.9144 H   0  0  0  0  0  0  0  0  0  0  0  0
   -4.9780    2.0644    1.8538 H   0  0  0  0  0  0  0  0  0  0  0  0
   -2.6367    1.6872    1.3127 H   0  0  0  0  0  0  0  0  0  0  0  0
   -1.3570   -1.3629   -0.3860 H   0  0  0  0  0  0  0  0  0  0  0  0
   -0.9254   -0.0213    0.6446 H   0  0  0  0  0  0  0  0  0  0  0  0
   -1.2914    1.5826   -1.2781 H   0  0  0  0  0  0  0  0  0  0  0  0
   -1.7425    0.2239   -2.3206 H   0  0  0  0  0  0  0  0  0  0  0  0
    0.5022   -0.3948   -2.5066 H   0  0  0  0  0  0  0  0  0  0  0  0
    3.4745    1.6985   -0.2200 H   0  0  0  0  0  0  0  0  0  0  0  0
    5.7098    1.6132   -0.9736 H   0  0  0  0  0  0  0  0  0  0  0  0
    5.2502    0.4861   -2.2753 H   0  0  0  0  0  0  0  0  0  0  0  0
    4.7340   -1.2669   -0.4687 H   0  0  0  0  0  0  0  0  0  0  0  0
    6.9308   -2.0239   -0.3246 H   0  0  0  0  0  0  0  0  0  0  0  0
    7.2337   -0.8171   -1.5822 H   0  0  0  0  0  0  0  0  0  0  0  0
    8.6230   -0.6570    0.7292 H   0  0  0  0  0  0  0  0  0  0  0  0
    7.8853    0.8253    0.0920 H   0  0  0  0  0  0  0  0  0  0  0  0
    6.8833    0.7477    2.2721 H   0  0  0  0  0  0  0  0  0  0  0  0
    6.7521   -1.0252    2.2335 H   0  0  0  0  0  0  0  0  0  0  0  0
   -3.6728   -1.7873   -0.9839 H   0  0  0  0  0  0  0  0  0  0  0  0
   -5.3813   -3.3839   -0.6823 H   0  0  0  0  0  0  0  0  0  0  0  0
   -5.5472   -2.4252   -2.2056 H   0  0  0  0  0  0  0  0  0  0  0  0
   -6.9446   -3.2385   -1.4931 H   0  0  0  0  0  0  0  0  0  0  0  0
  1  2  1  0
  2  3  1  0
  3  4  2  0
  4  5  1  0
  5  6  2  0
  6  7  1  0
  7  8  1  0
  8  9  1  0
  9 10  1  0
 10 11  2  0
 10 12  1  0
 12 13  2  0
 12 14  1  0
 14 15  1  0
 15 16  1  0
 16 17  1  0
 17 18  1  0
 18 19  1  0
 19 20  1  0
  6 21  1  0
 21 22  2  0
 22 23  1  0
 23 24  1  0
 22  3  1  0
 20 16  1  0
  1 25  1  0
  1 26  1  0
  1 27  1  0
  4 28  1  0
  5 29  1  0
  7 30  1  0
  7 31  1  0
  8 32  1  0
  8 33  1  0
  9 34  1  0
 14 35  1  0
 15 36  1  0
 15 37  1  0
 16 38  1  0
 17 39  1  0
 17 40  1  0
 18 41  1  0
 18 42  1  0
 19 43  1  0
 19 44  1  0
 21 45  1  0
 24 46  1  0
 24 47  1  0
 24 48  1  0
M  END
