
     RDKit          3D

 44 50  0  0  0  0  0  0  0  0999 V2000
    6.5340    0.7792    0.1911 Si  0  0  0  0  0  4  0  0  0  0  0  0
    5.2805    1.1083    1.5996 C   0  0  0  0  0  0  0  0  0  0  0  0
    4.0441    0.6720    1.2725 C   0  0  0  0  0  0  0  0  0  0  0  0
    3.9388    0.0700   -0.0247 C   0  0  0  0  0  0  0  0  0  0  0  0
    5.1289    0.0103   -0.7985 C   0  0  0  0  0  0  0  0  0  0  0  0
    4.9890   -0.5614   -2.0252 C   0  0  0  0  0  0  0  0  0  0  0  0
    3.3460   -1.0429   -2.2489 S   0  0  0  0  0  0  0  0  0  0  0  0
    2.8649   -0.4790   -0.6834 C   0  0  0  0  0  0  0  0  0  0  0  0
    1.4818   -0.6305   -0.2741 C   0  0  0  0  0  0  0  0  0  0  0  0
    0.4358    0.1976   -0.7337 C   0  0  0  0  0  0  0  0  0  0  0  0
   -0.9705    0.1334   -0.3571 C   0  0  0  0  0  0  0  0  0  0  0  0
   -1.9181    1.1041   -0.8346 C   0  0  0  0  0  0  0  0  0  0  0  0
   -1.5332    2.2213   -1.6327 C   0  0  0  0  0  0  0  0  0  0  0  0
   -2.4263    3.1925   -2.0849 C   0  0  0  0  0  0  0  0  0  0  0  0
   -3.7565    3.0898   -1.7513 C   0  0  0  0  0  0  0  0  0  0  0  0
   -4.1786    2.0137   -0.9740 C   0  0  0  0  0  0  0  0  0  0  0  0
   -3.3001    0.9985   -0.4984 C   0  0  0  0  0  0  0  0  0  0  0  0
   -3.7762   -0.1156    0.2678 C   0  0  0  0  0  0  0  0  0  0  0  0
   -5.1493   -0.3137    0.5726 C   0  0  0  0  0  0  0  0  0  0  0  0
   -5.5787   -1.4454    1.2415 C   0  0  0  0  0  0  0  0  0  0  0  0
   -4.7526   -2.4236    1.6135 N   0  0  0  0  0  0  0  0  0  0  0  0
   -3.4431   -2.2258    1.3335 C   0  0  0  0  0  0  0  0  0  0  0  0
   -2.8633   -1.0880    0.7320 C   0  0  0  0  0  0  0  0  0  0  0  0
   -1.4446   -0.9089    0.5164 C   0  0  0  0  0  0  0  0  0  0  0  0
   -0.3488   -1.6722    1.0816 C   0  0  0  0  0  0  0  0  0  0  0  0
   -0.4375   -2.5196    2.1666 C   0  0  0  0  0  0  0  0  0  0  0  0
    1.0485   -3.2928    2.5434 S   0  0  0  0  0  0  0  0  0  0  0  0
    1.8781   -2.4063    1.3420 C   0  0  0  0  0  0  0  0  0  0  0  0
    1.0376   -1.5375    0.6822 C   0  0  0  0  0  0  0  0  0  0  0  0
    7.5722   -0.1906    0.6198 H   0  0  0  0  0  0  0  0  0  0  0  0
    7.0447    2.0528   -0.3742 H   0  0  0  0  0  0  0  0  0  0  0  0
    5.5890    1.5877    2.5146 H   0  0  0  0  0  0  0  0  0  0  0  0
    3.1896    0.7651    1.9337 H   0  0  0  0  0  0  0  0  0  0  0  0
    5.7230   -0.7288   -2.8018 H   0  0  0  0  0  0  0  0  0  0  0  0
    0.7580    0.9543   -1.4473 H   0  0  0  0  0  0  0  0  0  0  0  0
   -0.4992    2.3838   -1.9211 H   0  0  0  0  0  0  0  0  0  0  0  0
   -2.0712    4.0235   -2.6883 H   0  0  0  0  0  0  0  0  0  0  0  0
   -4.4697    3.8363   -2.0891 H   0  0  0  0  0  0  0  0  0  0  0  0
   -5.2405    1.9927   -0.7480 H   0  0  0  0  0  0  0  0  0  0  0  0
   -5.9165    0.3939    0.2829 H   0  0  0  0  0  0  0  0  0  0  0  0
   -6.6280   -1.5991    1.4741 H   0  0  0  0  0  0  0  0  0  0  0  0
   -2.8526   -3.1020    1.5749 H   0  0  0  0  0  0  0  0  0  0  0  0
   -1.2719   -2.7449    2.8113 H   0  0  0  0  0  0  0  0  0  0  0  0
    2.9427   -2.5519    1.2161 H   0  0  0  0  0  0  0  0  0  0  0  0
  1  2  1  0
  2  3  2  0
  3  4  1  0
  4  5  1  0
  5  6  2  0
  6  7  1  0
  7  8  1  0
  8  9  1  0
  9 10  2  0
 10 11  1  0
 11 12  2  0
 12 13  1  0
 13 14  2  0
 14 15  1  0
 15 16  2  0
 16 17  1  0
 17 18  2  0
 18 19  1  0
 19 20  2  0
 20 21  1  0
 21 22  2  0
 22 23  1  0
 23 24  2  0
 24 25  1  0
 25 26  2  0
 26 27  1  0
 27 28  1  0
 28 29  2  0
  5  1  1  0
 29  9  1  0
  8  4  2  0
 24 11  1  0
 29 25  1  0
 17 12  1  0
 23 18  1  0
  1 30  1  0
  1 31  1  0
  2 32  1  0
  3 33  1  0
  6 34  1  0
 10 35  1  0
 13 36  1  0
 14 37  1  0
 15 38  1  0
 16 39  1  0
 19 40  1  0
 20 41  1  0
 22 42  1  0
 26 43  1  0
 28 44  1  0
M  END
