
     RDKit          3D

 40 41  0  0  0  0  0  0  0  0999 V2000
    6.9948   -0.3893   -0.2708 C   0  0  0  0  0  0  0  0  0  0  0  0
    6.0628   -1.4149   -0.5920 O   0  0  0  0  0  0  0  0  0  0  0  0
    4.7432   -1.0594   -0.6279 C   0  0  0  0  0  0  0  0  0  0  0  0
    4.2308    0.2201   -0.4193 C   0  0  0  0  0  0  0  0  0  0  0  0
    2.8515    0.4445   -0.4880 C   0  0  0  0  0  0  0  0  0  0  0  0
    1.9660   -0.6057   -0.7675 C   0  0  0  0  0  0  0  0  0  0  0  0
    0.4796   -0.3557   -0.8320 C   0  0  0  0  0  0  0  0  0  0  0  0
   -0.0245   -0.0656    0.4982 N   0  0  0  0  0  0  0  0  0  0  0  0
   -1.3030    0.3389    0.8488 C   0  0  0  0  0  0  0  0  0  0  0  0
   -1.6702    0.4275    2.1389 C   0  0  0  0  0  0  0  0  0  0  0  0
   -3.0102    0.9058    2.5447 C   0  0  0  0  0  0  0  0  0  0  0  0
   -3.2877    0.9672    3.7410 O   0  0  0  0  0  0  0  0  0  0  0  0
   -3.9711    1.3714    1.4748 C   0  0  0  0  0  0  0  0  0  0  0  0
   -3.7667    0.6303    0.1449 C   0  0  0  0  0  0  0  0  0  0  0  0
   -4.6150    1.3061   -0.9483 C   0  0  0  0  0  0  0  0  0  0  0  0
   -4.2317   -0.8364    0.2705 C   0  0  0  0  0  0  0  0  0  0  0  0
   -2.2758    0.6939   -0.2626 C   0  0  0  0  0  0  0  0  0  0  0  0
    2.4870   -1.8893   -0.9666 C   0  0  0  0  0  0  0  0  0  0  0  0
    3.8645   -2.1091   -0.9009 C   0  0  0  0  0  0  0  0  0  0  0  0
    6.8095    0.0111    0.7327 H   0  0  0  0  0  0  0  0  0  0  0  0
    6.9823    0.4057   -1.0231 H   0  0  0  0  0  0  0  0  0  0  0  0
    7.9959   -0.8322   -0.2724 H   0  0  0  0  0  0  0  0  0  0  0  0
    4.8743    1.0650   -0.1993 H   0  0  0  0  0  0  0  0  0  0  0  0
    2.4654    1.4455   -0.3126 H   0  0  0  0  0  0  0  0  0  0  0  0
    0.2913    0.4825   -1.5130 H   0  0  0  0  0  0  0  0  0  0  0  0
   -0.0333   -1.2335   -1.2410 H   0  0  0  0  0  0  0  0  0  0  0  0
    0.5345   -0.4588    1.2538 H   0  0  0  0  0  0  0  0  0  0  0  0
   -1.0002    0.1842    2.9535 H   0  0  0  0  0  0  0  0  0  0  0  0
   -4.9930    1.2177    1.8401 H   0  0  0  0  0  0  0  0  0  0  0  0
   -3.8189    2.4503    1.3503 H   0  0  0  0  0  0  0  0  0  0  0  0
   -4.3356    2.3577   -1.0742 H   0  0  0  0  0  0  0  0  0  0  0  0
   -5.6810    1.2732   -0.6994 H   0  0  0  0  0  0  0  0  0  0  0  0
   -4.4803    0.8094   -1.9152 H   0  0  0  0  0  0  0  0  0  0  0  0
   -5.2933   -0.8905    0.5348 H   0  0  0  0  0  0  0  0  0  0  0  0
   -3.6750   -1.3868    1.0351 H   0  0  0  0  0  0  0  0  0  0  0  0
   -4.1009   -1.3702   -0.6773 H   0  0  0  0  0  0  0  0  0  0  0  0
   -2.1297    0.0241   -1.1192 H   0  0  0  0  0  0  0  0  0  0  0  0
   -2.0226    1.7051   -0.6110 H   0  0  0  0  0  0  0  0  0  0  0  0
    1.8287   -2.7302   -1.1731 H   0  0  0  0  0  0  0  0  0  0  0  0
    4.2577   -3.1097   -1.0597 H   0  0  0  0  0  0  0  0  0  0  0  0
  1  2  1  0
  2  3  1  0
  3  4  2  0
  4  5  1  0
  5  6  2  0
  6  7  1  0
  7  8  1  0
  8  9  1  0
  9 10  2  0
 10 11  1  0
 11 12  2  0
 11 13  1  0
 13 14  1  0
 14 15  1  0
 14 16  1  0
 14 17  1  0
  6 18  1  0
 18 19  2  0
 19  3  1  0
 17  9  1  0
  1 20  1  0
  1 21  1  0
  1 22  1  0
  4 23  1  0
  5 24  1  0
  7 25  1  0
  7 26  1  0
  8 27  1  0
 10 28  1  0
 13 29  1  0
 13 30  1  0
 15 31  1  0
 15 32  1  0
 15 33  1  0
 16 34  1  0
 16 35  1  0
 16 36  1  0
 17 37  1  0
 17 38  1  0
 18 39  1  0
 19 40  1  0
M  END
