
     RDKit          3D

 39 40  0  0  0  0  0  0  0  0999 V2000
   -5.3612   -1.6164   -1.4081 C   0  0  0  0  0  0  0  0  0  0  0  0
   -5.0703   -1.3105   -0.0507 O   0  0  0  0  0  0  0  0  0  0  0  0
   -3.7611   -1.0795    0.2727 C   0  0  0  0  0  0  0  0  0  0  0  0
   -3.5438   -0.7731    1.6175 C   0  0  0  0  0  0  0  0  0  0  0  0
   -2.2570   -0.5172    2.0966 C   0  0  0  0  0  0  0  0  0  0  0  0
   -1.1712   -0.5667    1.2264 C   0  0  0  0  0  0  0  0  0  0  0  0
    0.1583   -0.3231    1.6212 N   0  0  0  0  0  0  0  0  0  0  0  0
    0.6479    0.0479    2.8569 C   0  0  0  0  0  0  0  0  0  0  0  0
   -0.0019    0.1786    3.8900 O   0  0  0  0  0  0  0  0  0  0  0  0
    2.1703    0.2383    2.8525 C   0  0  0  0  0  0  0  0  0  0  0  0
    2.7354    0.3352    1.5388 O   0  0  0  0  0  0  0  0  0  0  0  0
    2.7000    1.5761    0.9917 C   0  0  0  0  0  0  0  0  0  0  0  0
    2.2802    2.5848    1.5317 O   0  0  0  0  0  0  0  0  0  0  0  0
    3.1981    1.5402   -0.4068 C   0  0  0  0  0  0  0  0  0  0  0  0
    3.7431    0.3891   -0.9789 C   0  0  0  0  0  0  0  0  0  0  0  0
    4.1583    0.4551   -2.2965 C   0  0  0  0  0  0  0  0  0  0  0  0
    4.0635    1.5659   -3.0572 N   0  0  0  0  0  0  0  0  0  0  0  0
    3.5390    2.6669   -2.4780 C   0  0  0  0  0  0  0  0  0  0  0  0
    3.0962    2.7049   -1.1694 C   0  0  0  0  0  0  0  0  0  0  0  0
   -1.3821   -0.8673   -0.1369 C   0  0  0  0  0  0  0  0  0  0  0  0
   -0.2433   -0.8834   -0.9142 O   0  0  0  0  0  0  0  0  0  0  0  0
   -0.4220   -0.9832   -2.3221 C   0  0  0  0  0  0  0  0  0  0  0  0
   -2.6761   -1.1275   -0.6060 C   0  0  0  0  0  0  0  0  0  0  0  0
   -5.0849   -0.7872   -2.0677 H   0  0  0  0  0  0  0  0  0  0  0  0
   -6.4422   -1.7637   -1.4936 H   0  0  0  0  0  0  0  0  0  0  0  0
   -4.8731   -2.5470   -1.7159 H   0  0  0  0  0  0  0  0  0  0  0  0
   -4.3861   -0.7332    2.3048 H   0  0  0  0  0  0  0  0  0  0  0  0
   -2.1371   -0.2845    3.1497 H   0  0  0  0  0  0  0  0  0  0  0  0
    0.8322   -0.4100    0.8662 H   0  0  0  0  0  0  0  0  0  0  0  0
    2.6113   -0.6444    3.3274 H   0  0  0  0  0  0  0  0  0  0  0  0
    2.4313    1.1111    3.4618 H   0  0  0  0  0  0  0  0  0  0  0  0
    3.8494   -0.5382   -0.4278 H   0  0  0  0  0  0  0  0  0  0  0  0
    4.5915   -0.4093   -2.7927 H   0  0  0  0  0  0  0  0  0  0  0  0
    3.4815    3.5449   -3.1156 H   0  0  0  0  0  0  0  0  0  0  0  0
    2.6784    3.6185   -0.7576 H   0  0  0  0  0  0  0  0  0  0  0  0
   -0.8237   -1.9638   -2.5968 H   0  0  0  0  0  0  0  0  0  0  0  0
    0.5622   -0.8841   -2.7903 H   0  0  0  0  0  0  0  0  0  0  0  0
   -1.0539   -0.1735   -2.7016 H   0  0  0  0  0  0  0  0  0  0  0  0
   -2.8373   -1.3708   -1.6472 H   0  0  0  0  0  0  0  0  0  0  0  0
  1  2  1  0
  2  3  1  0
  3  4  2  0
  4  5  1  0
  5  6  2  0
  6  7  1  0
  7  8  1  0
  8  9  2  0
  8 10  1  0
 10 11  1  0
 11 12  1  0
 12 13  2  0
 12 14  1  0
 14 15  2  0
 15 16  1  0
 16 17  2  0
 17 18  1  0
 18 19  2  0
  6 20  1  0
 20 21  1  0
 21 22  1  0
 20 23  2  0
 23  3  1  0
 19 14  1  0
  1 24  1  0
  1 25  1  0
  1 26  1  0
  4 27  1  0
  5 28  1  0
  7 29  1  0
 10 30  1  0
 10 31  1  0
 15 32  1  0
 16 33  1  0
 18 34  1  0
 19 35  1  0
 22 36  1  0
 22 37  1  0
 22 38  1  0
 23 39  1  0
M  END
