
     RDKit          3D

 33 35  0  0  0  0  0  0  0  0999 V2000
   -6.3095    1.6981   -0.9266 C   0  0  0  0  0  0  0  0  0  0  0  0
   -6.0539    0.3032   -0.8171 O   0  0  0  0  0  0  0  0  0  0  0  0
   -4.7604   -0.0688   -0.5811 C   0  0  0  0  0  0  0  0  0  0  0  0
   -4.5541   -1.4430   -0.4820 C   0  0  0  0  0  0  0  0  0  0  0  0
   -3.2748   -1.9565   -0.2418 C   0  0  0  0  0  0  0  0  0  0  0  0
   -2.1660   -1.1093   -0.0936 C   0  0  0  0  0  0  0  0  0  0  0  0
   -0.9088   -1.6867    0.1445 N   0  0  0  0  0  0  0  0  0  0  0  0
    0.3048   -1.0889    0.3142 C   0  0  0  0  0  0  0  0  0  0  0  0
    0.6349    0.1545    0.2960 N   0  0  0  0  0  0  0  0  0  0  0  0
    1.9751    0.3855    0.5204 C   0  0  0  0  0  0  0  0  0  0  0  0
    2.4454    1.4987    0.6855 O   0  0  0  0  0  0  0  0  0  0  0  0
    2.7483   -0.8960    0.6102 C   0  0  0  0  0  0  0  0  0  0  0  0
    4.0682   -1.1029    0.7105 C   0  0  0  0  0  0  0  0  0  0  0  0
    5.0484   -0.0808    0.6365 C   0  0  0  0  0  0  0  0  0  0  0  0
    6.2418    0.0278    1.3419 C   0  0  0  0  0  0  0  0  0  0  0  0
    6.9022    1.1999    0.9024 C   0  0  0  0  0  0  0  0  0  0  0  0
    6.0957    1.7408   -0.0650 C   0  0  0  0  0  0  0  0  0  0  0  0
    4.9966    0.9714   -0.2466 O   0  0  0  0  0  0  0  0  0  0  0  0
    1.6239   -2.2129    0.5978 S   0  0  0  0  0  0  0  0  0  0  0  0
   -2.3893    0.2671   -0.1962 C   0  0  0  0  0  0  0  0  0  0  0  0
   -3.6712    0.7854   -0.4371 C   0  0  0  0  0  0  0  0  0  0  0  0
   -6.0694    2.2180    0.0068 H   0  0  0  0  0  0  0  0  0  0  0  0
   -7.3798    1.8279   -1.1138 H   0  0  0  0  0  0  0  0  0  0  0  0
   -5.7683    2.1334   -1.7732 H   0  0  0  0  0  0  0  0  0  0  0  0
   -5.3958   -2.1224   -0.5927 H   0  0  0  0  0  0  0  0  0  0  0  0
   -3.1610   -3.0356   -0.1726 H   0  0  0  0  0  0  0  0  0  0  0  0
   -0.9057   -2.6962    0.2011 H   0  0  0  0  0  0  0  0  0  0  0  0
    4.4446   -2.1145    0.8353 H   0  0  0  0  0  0  0  0  0  0  0  0
    6.5862   -0.6607    2.1013 H   0  0  0  0  0  0  0  0  0  0  0  0
    7.8450    1.5995    1.2474 H   0  0  0  0  0  0  0  0  0  0  0  0
    6.1563    2.6210   -0.6895 H   0  0  0  0  0  0  0  0  0  0  0  0
   -1.5752    0.9793   -0.0917 H   0  0  0  0  0  0  0  0  0  0  0  0
   -3.7741    1.8635   -0.5050 H   0  0  0  0  0  0  0  0  0  0  0  0
  1  2  1  0
  2  3  1  0
  3  4  2  0
  4  5  1  0
  5  6  2  0
  6  7  1  0
  7  8  1  0
  8  9  2  0
  9 10  1  0
 10 11  2  0
 10 12  1  0
 12 13  2  3
 13 14  1  0
 14 15  2  0
 15 16  1  0
 16 17  2  0
 17 18  1  0
 12 19  1  0
  6 20  1  0
 20 21  2  0
 21  3  1  0
 19  8  1  0
 18 14  1  0
  1 22  1  0
  1 23  1  0
  1 24  1  0
  4 25  1  0
  5 26  1  0
  7 27  1  0
 13 28  1  0
 15 29  1  0
 16 30  1  0
 17 31  1  0
 20 32  1  0
 21 33  1  0
M  END
