
     RDKit          3D

 35 36  0  0  0  0  0  0  0  0999 V2000
    3.7433   -0.2473    3.2532 C   0  0  0  0  0  0  0  0  0  0  0  0
    2.4681   -0.6429    2.7648 O   0  0  0  0  0  0  0  0  0  0  0  0
    2.0728   -0.1199    1.5644 C   0  0  0  0  0  0  0  0  0  0  0  0
    2.7909    0.7972    0.7950 C   0  0  0  0  0  0  0  0  0  0  0  0
    2.2720    1.2514   -0.4207 C   0  0  0  0  0  0  0  0  0  0  0  0
    1.0386    0.7815   -0.8747 C   0  0  0  0  0  0  0  0  0  0  0  0
    0.5688    1.2730   -2.0663 O   0  0  0  0  0  0  0  0  0  0  0  0
    0.9390    0.3966   -3.1334 C   0  0  0  0  0  0  0  0  0  0  0  0
    0.2899   -0.1095   -0.0966 C   0  0  0  0  0  0  0  0  0  0  0  0
   -1.0200   -0.5846   -0.5052 C   0  0  0  0  0  0  0  0  0  0  0  0
   -1.2035   -1.9124   -0.8510 N   0  0  0  0  0  0  0  0  0  0  0  0
   -2.4626   -2.1212   -1.1651 C   0  0  0  0  0  0  0  0  0  0  0  0
   -3.0175   -3.4371   -1.5809 C   0  0  0  0  0  0  0  0  0  0  0  0
   -3.4871   -0.7475   -1.0711 S   0  0  0  0  0  0  0  0  0  0  0  0
   -2.1564    0.2069   -0.5479 C   0  0  0  0  0  0  0  0  0  0  0  0
   -2.3439    1.6534   -0.2144 C   0  0  0  0  0  0  0  0  0  0  0  0
   -2.3208    1.8678    1.2800 C   0  0  0  0  0  0  0  0  0  0  0  0
   -2.4180    1.0381    2.1686 O   0  0  0  0  0  0  0  0  0  0  0  0
   -2.2132    3.1773    1.5982 O   0  0  0  0  0  0  0  0  0  0  0  0
    0.8260   -0.5673    1.1145 C   0  0  0  0  0  0  0  0  0  0  0  0
    3.9132   -0.7650    4.2022 H   0  0  0  0  0  0  0  0  0  0  0  0
    3.7727    0.8292    3.4514 H   0  0  0  0  0  0  0  0  0  0  0  0
    4.5405   -0.5450    2.5640 H   0  0  0  0  0  0  0  0  0  0  0  0
    3.7555    1.1791    1.1118 H   0  0  0  0  0  0  0  0  0  0  0  0
    2.8312    1.9685   -1.0154 H   0  0  0  0  0  0  0  0  0  0  0  0
    0.5478    0.8206   -4.0631 H   0  0  0  0  0  0  0  0  0  0  0  0
    2.0285    0.3270   -3.2255 H   0  0  0  0  0  0  0  0  0  0  0  0
    0.5041   -0.6005   -3.0083 H   0  0  0  0  0  0  0  0  0  0  0  0
   -3.7998   -3.7659   -0.8896 H   0  0  0  0  0  0  0  0  0  0  0  0
   -3.4389   -3.3809   -2.5896 H   0  0  0  0  0  0  0  0  0  0  0  0
   -2.2314   -4.1990   -1.5866 H   0  0  0  0  0  0  0  0  0  0  0  0
   -3.2997    2.0306   -0.5947 H   0  0  0  0  0  0  0  0  0  0  0  0
   -1.5443    2.2477   -0.6674 H   0  0  0  0  0  0  0  0  0  0  0  0
   -2.2082    3.1749    2.5789 H   0  0  0  0  0  0  0  0  0  0  0  0
    0.2622   -1.2747    1.7205 H   0  0  0  0  0  0  0  0  0  0  0  0
  1  2  1  0
  2  3  1  0
  3  4  2  0
  4  5  1  0
  5  6  2  0
  6  7  1  0
  7  8  1  0
  6  9  1  0
  9 10  1  0
 10 11  1  0
 11 12  2  0
 12 13  1  0
 12 14  1  0
 14 15  1  0
 15 16  1  0
 16 17  1  0
 17 18  2  0
 17 19  1  0
  9 20  2  0
 20  3  1  0
 15 10  2  0
  1 21  1  0
  1 22  1  0
  1 23  1  0
  4 24  1  0
  5 25  1  0
  8 26  1  0
  8 27  1  0
  8 28  1  0
 13 29  1  0
 13 30  1  0
 13 31  1  0
 16 32  1  0
 16 33  1  0
 19 34  1  0
 20 35  1  0
M  END
