
     RDKit          3D

 46 53  0  0  0  0  0  0  0  0999 V2000
   -7.0583   -0.4719   -0.3126 Si  0  0  0  0  0  4  0  0  0  0  0  0
   -5.7539   -1.8364   -0.0017 C   0  0  0  0  0  0  0  0  0  0  0  0
   -4.5061   -1.3209    0.0556 C   0  0  0  0  0  0  0  0  0  0  0  0
   -4.4286    0.1006   -0.1214 C   0  0  0  0  0  0  0  0  0  0  0  0
   -5.6564    0.7825   -0.3389 C   0  0  0  0  0  0  0  0  0  0  0  0
   -5.5436    2.1267   -0.5144 C   0  0  0  0  0  0  0  0  0  0  0  0
   -3.8810    2.5801   -0.4149 S   0  0  0  0  0  0  0  0  0  0  0  0
   -3.3505    0.9542   -0.1281 C   0  0  0  0  0  0  0  0  0  0  0  0
   -1.9358    0.6921    0.0538 C   0  0  0  0  0  0  0  0  0  0  0  0
   -0.9620    0.8614   -0.9392 C   0  0  0  0  0  0  0  0  0  0  0  0
    0.4464    0.5731   -0.7327 C   0  0  0  0  0  0  0  0  0  0  0  0
    1.4060    0.7787   -1.7436 C   0  0  0  0  0  0  0  0  0  0  0  0
    1.2004    1.2691   -3.0108 C   0  0  0  0  0  0  0  0  0  0  0  0
    2.3828    1.3267   -3.6890 O   0  0  0  0  0  0  0  0  0  0  0  0
    3.3535    0.8692   -2.8464 C   0  0  0  0  0  0  0  0  0  0  0  0
    2.8016    0.5216   -1.6380 C   0  0  0  0  0  0  0  0  0  0  0  0
    3.4458    0.0005   -0.5153 C   0  0  0  0  0  0  0  0  0  0  0  0
    4.8162   -0.2707   -0.4207 C   0  0  0  0  0  0  0  0  0  0  0  0
    5.7744   -0.0538   -1.3707 O   0  0  0  0  0  0  0  0  0  0  0  0
    6.9592   -0.4637   -0.8508 C   0  0  0  0  0  0  0  0  0  0  0  0
    6.7847   -0.9488    0.4234 C   0  0  0  0  0  0  0  0  0  0  0  0
    5.3997   -0.8276    0.7093 C   0  0  0  0  0  0  0  0  0  0  0  0
    4.5725   -1.1402    1.7929 C   0  0  0  0  0  0  0  0  0  0  0  0
    3.1907   -0.8633    1.7037 C   0  0  0  0  0  0  0  0  0  0  0  0
    2.5608   -0.2669    0.5842 C   0  0  0  0  0  0  0  0  0  0  0  0
    1.0888    0.0548    0.4868 C   0  0  0  0  0  0  0  0  0  0  0  0
    0.0351   -0.0432    1.4662 C   0  0  0  0  0  0  0  0  0  0  0  0
    0.1391   -0.3577    2.8040 C   0  0  0  0  0  0  0  0  0  0  0  0
   -1.1196   -0.3190    3.3670 N   0  0  0  0  0  0  0  0  0  0  0  0
   -2.0420    0.0572    2.4281 C   0  0  0  0  0  0  0  0  0  0  0  0
   -1.3654    0.2493    1.2465 C   0  0  0  0  0  0  0  0  0  0  0  0
   -7.9698   -0.3363    0.8510 H   0  0  0  0  0  0  0  0  0  0  0  0
   -7.7271   -0.6635   -1.6235 H   0  0  0  0  0  0  0  0  0  0  0  0
   -6.0448   -2.8692    0.1014 H   0  0  0  0  0  0  0  0  0  0  0  0
   -3.6211   -1.9256    0.2204 H   0  0  0  0  0  0  0  0  0  0  0  0
   -6.3074    2.8705   -0.6959 H   0  0  0  0  0  0  0  0  0  0  0  0
   -1.2926    1.2235   -1.9115 H   0  0  0  0  0  0  0  0  0  0  0  0
    0.3399    1.6094   -3.5688 H   0  0  0  0  0  0  0  0  0  0  0  0
    4.3519    0.8578   -3.2606 H   0  0  0  0  0  0  0  0  0  0  0  0
    7.8173   -0.3495   -1.4985 H   0  0  0  0  0  0  0  0  0  0  0  0
    7.5581   -1.3438    1.0661 H   0  0  0  0  0  0  0  0  0  0  0  0
    4.9783   -1.5992    2.6900 H   0  0  0  0  0  0  0  0  0  0  0  0
    2.6064   -1.1737    2.5592 H   0  0  0  0  0  0  0  0  0  0  0  0
    0.9653   -0.5841    3.4556 H   0  0  0  0  0  0  0  0  0  0  0  0
   -1.3248   -0.5047    4.3404 H   0  0  0  0  0  0  0  0  0  0  0  0
   -3.0841    0.1745    2.6948 H   0  0  0  0  0  0  0  0  0  0  0  0
  1  2  1  0
  2  3  2  0
  3  4  1  0
  4  5  1  0
  5  6  2  0
  6  7  1  0
  7  8  1  0
  8  9  1  0
  9 10  2  0
 10 11  1  0
 11 12  1  0
 12 13  2  0
 13 14  1  0
 14 15  1  0
 15 16  2  0
 16 17  1  0
 17 18  2  0
 18 19  1  0
 19 20  1  0
 20 21  2  0
 21 22  1  0
 22 23  2  0
 23 24  1  0
 24 25  2  0
 25 26  1  0
 26 27  1  0
 27 28  2  0
 28 29  1  0
 29 30  1  0
 30 31  2  0
  5  1  1  0
 31  9  1  0
  8  4  2  0
 26 11  2  0
 31 27  1  0
 16 12  1  0
 25 17  1  0
 22 18  1  0
  1 32  1  0
  1 33  1  0
  2 34  1  0
  3 35  1  0
  6 36  1  0
 10 37  1  0
 13 38  1  0
 15 39  1  0
 20 40  1  0
 21 41  1  0
 23 42  1  0
 24 43  1  0
 28 44  1  0
 29 45  1  0
 30 46  1  0
M  END
