
     RDKit          3D

 25 25  0  0  0  0  0  0  0  0999 V2000
    3.7557    0.7454   -1.1932 C   0  0  0  0  0  0  0  0  0  0  0  0
    3.1373   -0.5050   -0.9120 O   0  0  0  0  0  0  0  0  0  0  0  0
    1.8410   -0.4728   -0.4810 C   0  0  0  0  0  0  0  0  0  0  0  0
    1.2855   -1.7226   -0.2067 C   0  0  0  0  0  0  0  0  0  0  0  0
   -0.0340   -1.8420    0.2448 C   0  0  0  0  0  0  0  0  0  0  0  0
   -0.8251   -0.7056    0.4338 C   0  0  0  0  0  0  0  0  0  0  0  0
   -2.1248   -0.7412    0.8560 O   0  0  0  0  0  0  0  0  0  0  0  0
   -2.6115   -1.9669    1.3893 C   0  0  0  0  0  0  0  0  0  0  0  0
   -0.2639    0.5465    0.1475 C   0  0  0  0  0  0  0  0  0  0  0  0
   -1.2029    2.0274    0.3779 S   0  0  0  0  0  6  0  0  0  0  0  0
   -2.4695    1.8589   -0.7120 N   0  0  0  0  0  0  0  0  0  0  0  0
   -0.4384    3.1485   -0.1265 O   0  0  0  0  0  0  0  0  0  0  0  0
   -1.7772    2.0444    1.7026 O   0  0  0  0  0  0  0  0  0  0  0  0
    1.0627    0.6666   -0.3029 C   0  0  0  0  0  0  0  0  0  0  0  0
    4.7815    0.5452   -1.5175 H   0  0  0  0  0  0  0  0  0  0  0  0
    3.2431    1.2638   -2.0101 H   0  0  0  0  0  0  0  0  0  0  0  0
    3.8060    1.3713   -0.2961 H   0  0  0  0  0  0  0  0  0  0  0  0
    1.8868   -2.6185   -0.3477 H   0  0  0  0  0  0  0  0  0  0  0  0
   -0.4118   -2.8423    0.4306 H   0  0  0  0  0  0  0  0  0  0  0  0
   -3.6110   -1.7809    1.7940 H   0  0  0  0  0  0  0  0  0  0  0  0
   -1.9806   -2.3239    2.2102 H   0  0  0  0  0  0  0  0  0  0  0  0
   -2.7065   -2.7235    0.6039 H   0  0  0  0  0  0  0  0  0  0  0  0
   -3.3446    1.7433   -0.2012 H   0  0  0  0  0  0  0  0  0  0  0  0
   -2.4614    2.6290   -1.3790 H   0  0  0  0  0  0  0  0  0  0  0  0
    1.4636    1.6550   -0.5046 H   0  0  0  0  0  0  0  0  0  0  0  0
  1  2  1  0
  2  3  1  0
  3  4  2  0
  4  5  1  0
  5  6  2  0
  6  7  1  0
  7  8  1  0
  6  9  1  0
  9 10  1  0
 10 11  1  0
 10 12  2  0
 10 13  2  0
  9 14  2  0
 14  3  1  0
  1 15  1  0
  1 16  1  0
  1 17  1  0
  4 18  1  0
  5 19  1  0
  8 20  1  0
  8 21  1  0
  8 22  1  0
 11 23  1  0
 11 24  1  0
 14 25  1  0
M  END
