
     RDKit          3D

 35 36  0  0  0  0  0  0  0  0999 V2000
   -0.9237   -2.2000    3.2175 C   0  0  0  0  0  0  0  0  0  0  0  0
   -1.9341   -1.2325    3.4589 O   0  0  0  0  0  0  0  0  0  0  0  0
   -2.0103   -0.1791    2.5526 C   0  0  0  0  0  0  0  0  0  0  0  0
   -3.0736    0.6950    2.8127 C   0  0  0  0  0  0  0  0  0  0  0  0
   -3.3098    1.8041    2.0051 C   0  0  0  0  0  0  0  0  0  0  0  0
   -2.4988    2.0749    0.8990 C   0  0  0  0  0  0  0  0  0  0  0  0
   -2.6679    3.1456    0.0611 O   0  0  0  0  0  0  0  0  0  0  0  0
   -3.9751    3.7025    0.0022 C   0  0  0  0  0  0  0  0  0  0  0  0
   -1.4157    1.2030    0.6553 C   0  0  0  0  0  0  0  0  0  0  0  0
   -0.2347    1.2812   -0.6039 S   0  0  0  0  0  0  0  0  0  0  0  0
    0.5075   -0.1190   -0.0112 C   0  0  0  0  0  0  0  0  0  0  0  0
    1.6167   -0.6863   -0.5828 N   0  0  0  0  0  0  0  0  0  0  0  0
    2.3044   -0.2467   -1.6944 C   0  0  0  0  0  0  0  0  0  0  0  0
    2.0361    0.7327   -2.3811 O   0  0  0  0  0  0  0  0  0  0  0  0
    3.5000   -1.1486   -2.0221 C   0  0  0  0  0  0  0  0  0  0  0  0
    3.0196   -2.5116   -2.5162 C   0  0  0  0  0  0  0  0  0  0  0  0
    4.4113   -0.4986   -3.0636 C   0  0  0  0  0  0  0  0  0  0  0  0
   -0.0378   -0.6577    1.0495 N   0  0  0  0  0  0  0  0  0  0  0  0
   -1.1499    0.0818    1.4531 C   0  0  0  0  0  0  0  0  0  0  0  0
   -1.0504   -2.6729    2.2402 H   0  0  0  0  0  0  0  0  0  0  0  0
    0.0719   -1.7700    3.3392 H   0  0  0  0  0  0  0  0  0  0  0  0
   -1.0304   -2.9853    3.9729 H   0  0  0  0  0  0  0  0  0  0  0  0
   -3.7258    0.4999    3.6622 H   0  0  0  0  0  0  0  0  0  0  0  0
   -4.1382    2.4548    2.2671 H   0  0  0  0  0  0  0  0  0  0  0  0
   -4.7392    2.9282   -0.1262 H   0  0  0  0  0  0  0  0  0  0  0  0
   -4.1763    4.3125    0.8881 H   0  0  0  0  0  0  0  0  0  0  0  0
   -4.0182    4.3586   -0.8725 H   0  0  0  0  0  0  0  0  0  0  0  0
    1.9362   -1.5074   -0.0898 H   0  0  0  0  0  0  0  0  0  0  0  0
    4.0835   -1.2794   -1.1019 H   0  0  0  0  0  0  0  0  0  0  0  0
    3.8634   -3.1460   -2.8023 H   0  0  0  0  0  0  0  0  0  0  0  0
    2.3601   -2.4044   -3.3826 H   0  0  0  0  0  0  0  0  0  0  0  0
    2.4565   -3.0420   -1.7430 H   0  0  0  0  0  0  0  0  0  0  0  0
    3.8889   -0.3446   -4.0140 H   0  0  0  0  0  0  0  0  0  0  0  0
    4.7631    0.4795   -2.7153 H   0  0  0  0  0  0  0  0  0  0  0  0
    5.2907   -1.1223   -3.2559 H   0  0  0  0  0  0  0  0  0  0  0  0
  1  2  1  0
  2  3  1  0
  3  4  2  0
  4  5  1  0
  5  6  2  0
  6  7  1  0
  7  8  1  0
  6  9  1  0
  9 10  1  0
 10 11  1  0
 11 12  1  0
 12 13  1  0
 13 14  2  0
 13 15  1  0
 15 16  1  0
 15 17  1  0
 11 18  2  0
 18 19  1  0
 19  3  1  0
 19  9  2  0
  1 20  1  0
  1 21  1  0
  1 22  1  0
  4 23  1  0
  5 24  1  0
  8 25  1  0
  8 26  1  0
  8 27  1  0
 12 28  1  0
 15 29  1  0
 16 30  1  0
 16 31  1  0
 16 32  1  0
 17 33  1  0
 17 34  1  0
 17 35  1  0
M  END
