
     RDKit          3D

 38 40  0  0  0  0  0  0  0  0999 V2000
    6.6243   -0.0172   -1.6676 C   0  0  0  0  0  0  0  0  0  0  0  0
    6.4303   -0.1183   -0.2627 O   0  0  0  0  0  0  0  0  0  0  0  0
    5.1385   -0.1147    0.1846 C   0  0  0  0  0  0  0  0  0  0  0  0
    3.9935   -0.0358   -0.6078 C   0  0  0  0  0  0  0  0  0  0  0  0
    2.7204   -0.0426   -0.0192 C   0  0  0  0  0  0  0  0  0  0  0  0
    2.5834   -0.1344    1.3652 C   0  0  0  0  0  0  0  0  0  0  0  0
    1.4080   -0.1427    2.0616 O   0  0  0  0  0  0  0  0  0  0  0  0
    0.2041   -0.4129    1.3502 C   0  0  0  0  0  0  0  0  0  0  0  0
   -0.4762    0.8422    0.7939 C   0  0  0  0  0  0  0  0  0  0  0  0
    0.0995    1.9359    0.7474 O   0  0  0  0  0  0  0  0  0  0  0  0
   -1.8944    0.7553    0.3146 C   0  0  0  0  0  0  0  0  0  0  0  0
   -2.5985    1.8911    0.1017 C   0  0  0  0  0  0  0  0  0  0  0  0
   -2.0558    3.1538    0.2861 O   0  0  0  0  0  0  0  0  0  0  0  0
   -3.9213    1.9115   -0.3154 O   0  0  0  0  0  0  0  0  0  0  0  0
   -4.5828    0.7334   -0.5137 C   0  0  0  0  0  0  0  0  0  0  0  0
   -5.9184    0.8069   -0.9091 C   0  0  0  0  0  0  0  0  0  0  0  0
   -6.6449   -0.3649   -1.1294 C   0  0  0  0  0  0  0  0  0  0  0  0
   -6.0359   -1.6085   -0.9554 C   0  0  0  0  0  0  0  0  0  0  0  0
   -4.6993   -1.6807   -0.5606 C   0  0  0  0  0  0  0  0  0  0  0  0
   -3.9784   -0.5020   -0.3404 C   0  0  0  0  0  0  0  0  0  0  0  0
   -2.5711   -0.5400    0.0731 C   0  0  0  0  0  0  0  0  0  0  0  0
   -1.9940   -1.6130    0.1980 O   0  0  0  0  0  0  0  0  0  0  0  0
    3.7309   -0.1994    2.1564 C   0  0  0  0  0  0  0  0  0  0  0  0
    4.9988   -0.1946    1.5703 C   0  0  0  0  0  0  0  0  0  0  0  0
    7.7018   -0.0282   -1.8579 H   0  0  0  0  0  0  0  0  0  0  0  0
    6.1854   -0.8740   -2.1894 H   0  0  0  0  0  0  0  0  0  0  0  0
    6.2277    0.9275   -2.0542 H   0  0  0  0  0  0  0  0  0  0  0  0
    4.0522    0.0397   -1.6884 H   0  0  0  0  0  0  0  0  0  0  0  0
    1.8613    0.0457   -0.6748 H   0  0  0  0  0  0  0  0  0  0  0  0
    0.3704   -1.1492    0.5572 H   0  0  0  0  0  0  0  0  0  0  0  0
   -0.4741   -0.8540    2.0888 H   0  0  0  0  0  0  0  0  0  0  0  0
   -1.0986    3.0698    0.4967 H   0  0  0  0  0  0  0  0  0  0  0  0
   -6.3939    1.7753   -1.0458 H   0  0  0  0  0  0  0  0  0  0  0  0
   -7.6866   -0.3078   -1.4375 H   0  0  0  0  0  0  0  0  0  0  0  0
   -6.6024   -2.5209   -1.1279 H   0  0  0  0  0  0  0  0  0  0  0  0
   -4.2267   -2.6515   -0.4267 H   0  0  0  0  0  0  0  0  0  0  0  0
    3.6401   -0.2572    3.2380 H   0  0  0  0  0  0  0  0  0  0  0  0
    5.8828   -0.2502    2.2004 H   0  0  0  0  0  0  0  0  0  0  0  0
  1  2  1  0
  2  3  1  0
  3  4  2  0
  4  5  1  0
  5  6  2  0
  6  7  1  0
  7  8  1  0
  8  9  1  0
  9 10  2  0
  9 11  1  0
 11 12  2  0
 12 13  1  0
 12 14  1  0
 14 15  1  0
 15 16  2  0
 16 17  1  0
 17 18  2  0
 18 19  1  0
 19 20  2  0
 20 21  1  0
 21 22  2  0
  6 23  1  0
 23 24  2  0
 24  3  1  0
 21 11  1  0
 20 15  1  0
  1 25  1  0
  1 26  1  0
  1 27  1  0
  4 28  1  0
  5 29  1  0
  8 30  1  0
  8 31  1  0
 13 32  1  0
 16 33  1  0
 17 34  1  0
 18 35  1  0
 19 36  1  0
 23 37  1  0
 24 38  1  0
M  END
