
     RDKit          3D

 45 47  0  0  0  0  0  0  0  0999 V2000
    5.9207   -3.2209    2.4312 C   0  0  0  0  0  0  0  0  0  0  0  0
    4.9739   -3.4288    1.3910 O   0  0  0  0  0  0  0  0  0  0  0  0
    4.3508   -2.3200    0.8906 C   0  0  0  0  0  0  0  0  0  0  0  0
    3.4391   -2.5736   -0.1339 C   0  0  0  0  0  0  0  0  0  0  0  0
    2.7345   -1.5259   -0.7311 C   0  0  0  0  0  0  0  0  0  0  0  0
    2.9282   -0.2087   -0.3122 C   0  0  0  0  0  0  0  0  0  0  0  0
    2.1712    0.7111   -0.9781 O   0  0  0  0  0  0  0  0  0  0  0  0
    2.2327    2.0868   -0.5847 C   0  0  0  0  0  0  0  0  0  0  0  0
    1.3265    2.3672    0.6193 C   0  0  0  0  0  0  0  0  0  0  0  0
   -0.0772    2.0883    0.3240 N   0  0  0  0  0  0  0  0  0  0  0  0
   -0.9929    2.9178   -0.2520 C   0  0  0  0  0  0  0  0  0  0  0  0
   -0.7863    4.5565   -0.5107 S   0  0  0  0  0  0  0  0  0  0  0  0
   -2.2063    2.3734   -0.5651 N   0  0  0  0  0  0  0  0  0  0  0  0
   -2.5791    1.0375   -0.8632 C   0  0  0  0  0  0  0  0  0  0  0  0
   -1.6296    0.1156   -1.3267 C   0  0  0  0  0  0  0  0  0  0  0  0
   -2.0030   -1.1792   -1.6735 C   0  0  0  0  0  0  0  0  0  0  0  0
   -3.3360   -1.5646   -1.5812 C   0  0  0  0  0  0  0  0  0  0  0  0
   -4.3162   -0.6629   -1.1450 C   0  0  0  0  0  0  0  0  0  0  0  0
   -5.6576   -1.0743   -1.0708 C   0  0  0  0  0  0  0  0  0  0  0  0
   -6.6532   -0.2051   -0.6303 C   0  0  0  0  0  0  0  0  0  0  0  0
   -6.3188    1.0866   -0.2505 C   0  0  0  0  0  0  0  0  0  0  0  0
   -4.9890    1.5113   -0.3189 C   0  0  0  0  0  0  0  0  0  0  0  0
   -3.9524    0.6592   -0.7776 C   0  0  0  0  0  0  0  0  0  0  0  0
    3.8410    0.0473    0.7094 C   0  0  0  0  0  0  0  0  0  0  0  0
    4.5493   -1.0048    1.3094 C   0  0  0  0  0  0  0  0  0  0  0  0
    6.7548   -2.6002    2.0878 H   0  0  0  0  0  0  0  0  0  0  0  0
    6.3267   -4.1970    2.7139 H   0  0  0  0  0  0  0  0  0  0  0  0
    5.4445   -2.7890    3.3177 H   0  0  0  0  0  0  0  0  0  0  0  0
    3.2762   -3.5938   -0.4721 H   0  0  0  0  0  0  0  0  0  0  0  0
    2.0298   -1.7413   -1.5302 H   0  0  0  0  0  0  0  0  0  0  0  0
    3.2638    2.4100   -0.4053 H   0  0  0  0  0  0  0  0  0  0  0  0
    1.8828    2.6656   -1.4471 H   0  0  0  0  0  0  0  0  0  0  0  0
    1.4399    3.4066    0.9396 H   0  0  0  0  0  0  0  0  0  0  0  0
    1.5880    1.7237    1.4647 H   0  0  0  0  0  0  0  0  0  0  0  0
   -0.3960    1.1569    0.5570 H   0  0  0  0  0  0  0  0  0  0  0  0
   -2.9205    3.0726   -0.7303 H   0  0  0  0  0  0  0  0  0  0  0  0
   -0.5928    0.4010   -1.4846 H   0  0  0  0  0  0  0  0  0  0  0  0
   -1.2564   -1.8806   -2.0372 H   0  0  0  0  0  0  0  0  0  0  0  0
   -3.6070   -2.5797   -1.8648 H   0  0  0  0  0  0  0  0  0  0  0  0
   -5.9393   -2.0859   -1.3566 H   0  0  0  0  0  0  0  0  0  0  0  0
   -7.6855   -0.5407   -0.5779 H   0  0  0  0  0  0  0  0  0  0  0  0
   -7.0883    1.7665    0.1061 H   0  0  0  0  0  0  0  0  0  0  0  0
   -4.7743    2.5233    0.0135 H   0  0  0  0  0  0  0  0  0  0  0  0
    4.0340    1.0511    1.0707 H   0  0  0  0  0  0  0  0  0  0  0  0
    5.2494   -0.7589    2.1010 H   0  0  0  0  0  0  0  0  0  0  0  0
  1  2  1  0
  2  3  1  0
  3  4  2  0
  4  5  1  0
  5  6  2  0
  6  7  1  0
  7  8  1  0
  8  9  1  0
  9 10  1  0
 10 11  1  0
 11 12  2  0
 11 13  1  0
 13 14  1  0
 14 15  2  0
 15 16  1  0
 16 17  2  0
 17 18  1  0
 18 19  2  0
 19 20  1  0
 20 21  2  0
 21 22  1  0
 22 23  2  0
  6 24  1  0
 24 25  2  0
 25  3  1  0
 23 14  1  0
 23 18  1  0
  1 26  1  0
  1 27  1  0
  1 28  1  0
  4 29  1  0
  5 30  1  0
  8 31  1  0
  8 32  1  0
  9 33  1  0
  9 34  1  0
 10 35  1  0
 13 36  1  0
 15 37  1  0
 16 38  1  0
 17 39  1  0
 19 40  1  0
 20 41  1  0
 21 42  1  0
 22 43  1  0
 24 44  1  0
 25 45  1  0
M  END
