
     RDKit          3D

 41 42  0  0  0  0  0  0  0  0999 V2000
    3.8770    3.0197   -2.3399 C   0  0  0  0  0  0  0  0  0  0  0  0
    3.9750    2.3335   -1.1004 O   0  0  0  0  0  0  0  0  0  0  0  0
    3.1436    1.2604   -0.8953 C   0  0  0  0  0  0  0  0  0  0  0  0
    2.1992    0.8044   -1.8238 C   0  0  0  0  0  0  0  0  0  0  0  0
    1.3913   -0.2943   -1.5270 C   0  0  0  0  0  0  0  0  0  0  0  0
    1.5271   -0.9316   -0.2934 C   0  0  0  0  0  0  0  0  0  0  0  0
    0.4754   -2.3151    0.0832 S   0  0  0  0  0  6  0  0  0  0  0  0
    0.5459   -3.2056   -1.0605 O   0  0  0  0  0  0  0  0  0  0  0  0
    0.8134   -2.7857    1.4139 O   0  0  0  0  0  0  0  0  0  0  0  0
   -1.1816   -1.6792    0.1840 C   0  0  0  0  0  0  0  0  0  0  0  0
   -2.1493   -2.1057   -0.7243 C   0  0  0  0  0  0  0  0  0  0  0  0
   -3.4425   -1.5868   -0.6418 C   0  0  0  0  0  0  0  0  0  0  0  0
   -3.7685   -0.6494    0.3465 C   0  0  0  0  0  0  0  0  0  0  0  0
   -5.0106   -0.0841    0.4971 O   0  0  0  0  0  0  0  0  0  0  0  0
   -6.0433   -0.5125   -0.3789 C   0  0  0  0  0  0  0  0  0  0  0  0
   -2.7841   -0.2321    1.2695 C   0  0  0  0  0  0  0  0  0  0  0  0
   -3.1878    0.6879    2.2050 O   0  0  0  0  0  0  0  0  0  0  0  0
   -2.2578    1.0630    3.2113 C   0  0  0  0  0  0  0  0  0  0  0  0
   -1.4898   -0.7528    1.1853 C   0  0  0  0  0  0  0  0  0  0  0  0
    2.4727   -0.5004    0.6411 C   0  0  0  0  0  0  0  0  0  0  0  0
    3.2854    0.5976    0.3441 C   0  0  0  0  0  0  0  0  0  0  0  0
    4.2345    1.1079    1.1952 O   0  0  0  0  0  0  0  0  0  0  0  0
    4.5189    0.3791    2.3816 C   0  0  0  0  0  0  0  0  0  0  0  0
    4.6082    3.8338   -2.3302 H   0  0  0  0  0  0  0  0  0  0  0  0
    2.8851    3.4655   -2.4670 H   0  0  0  0  0  0  0  0  0  0  0  0
    4.1257    2.3600   -3.1776 H   0  0  0  0  0  0  0  0  0  0  0  0
    2.0713    1.2826   -2.7895 H   0  0  0  0  0  0  0  0  0  0  0  0
    0.6696   -0.6452   -2.2615 H   0  0  0  0  0  0  0  0  0  0  0  0
   -1.9129   -2.8375   -1.4941 H   0  0  0  0  0  0  0  0  0  0  0  0
   -4.1751   -1.9349   -1.3628 H   0  0  0  0  0  0  0  0  0  0  0  0
   -6.2369   -1.5846   -0.2683 H   0  0  0  0  0  0  0  0  0  0  0  0
   -6.9585    0.0201   -0.1028 H   0  0  0  0  0  0  0  0  0  0  0  0
   -5.8106   -0.2564   -1.4177 H   0  0  0  0  0  0  0  0  0  0  0  0
   -1.9407    0.1964    3.8010 H   0  0  0  0  0  0  0  0  0  0  0  0
   -2.7607    1.7599    3.8888 H   0  0  0  0  0  0  0  0  0  0  0  0
   -1.3977    1.5835    2.7775 H   0  0  0  0  0  0  0  0  0  0  0  0
   -0.7146   -0.4572    1.8846 H   0  0  0  0  0  0  0  0  0  0  0  0
    2.5582   -1.0256    1.5870 H   0  0  0  0  0  0  0  0  0  0  0  0
    5.3446    0.8827    2.8933 H   0  0  0  0  0  0  0  0  0  0  0  0
    3.6585    0.3808    3.0586 H   0  0  0  0  0  0  0  0  0  0  0  0
    4.8423   -0.6420    2.1535 H   0  0  0  0  0  0  0  0  0  0  0  0
  1  2  1  0
  2  3  1  0
  3  4  2  0
  4  5  1  0
  5  6  2  0
  6  7  1  0
  7  8  2  0
  7  9  2  0
  7 10  1  0
 10 11  2  0
 11 12  1  0
 12 13  2  0
 13 14  1  0
 14 15  1  0
 13 16  1  0
 16 17  1  0
 17 18  1  0
 16 19  2  0
  6 20  1  0
 20 21  2  0
 21 22  1  0
 22 23  1  0
 21  3  1  0
 19 10  1  0
  1 24  1  0
  1 25  1  0
  1 26  1  0
  4 27  1  0
  5 28  1  0
 11 29  1  0
 12 30  1  0
 15 31  1  0
 15 32  1  0
 15 33  1  0
 18 34  1  0
 18 35  1  0
 18 36  1  0
 19 37  1  0
 20 38  1  0
 23 39  1  0
 23 40  1  0
 23 41  1  0
M  END
