
     RDKit          3D

 37 39  0  0  0  0  0  0  0  0999 V2000
    4.6955   -0.3591   -2.6424 C   0  0  0  0  0  0  0  0  0  0  0  0
    4.8116   -0.4218   -1.2262 O   0  0  0  0  0  0  0  0  0  0  0  0
    3.6637   -0.6600   -0.5221 C   0  0  0  0  0  0  0  0  0  0  0  0
    2.3873   -0.8253   -1.0645 C   0  0  0  0  0  0  0  0  0  0  0  0
    1.2922   -1.0625   -0.2278 C   0  0  0  0  0  0  0  0  0  0  0  0
    1.4766   -1.1172    1.1545 C   0  0  0  0  0  0  0  0  0  0  0  0
    0.0940   -1.4191    2.2259 S   0  0  0  0  0  6  0  0  0  0  0  0
    0.5847   -2.2671    3.2985 O   0  0  0  0  0  0  0  0  0  0  0  0
   -1.0247   -1.8610    1.4170 O   0  0  0  0  0  0  0  0  0  0  0  0
   -0.3054    0.1526    2.9499 C   0  0  0  0  0  0  0  0  0  0  0  0
   -0.4364    1.3123    1.9801 C   0  0  0  0  0  0  0  0  0  0  0  0
   -1.5489    1.1679    0.9910 C   0  0  0  0  0  0  0  0  0  0  0  0
   -1.3500    0.9670   -0.2918 N   0  0  0  0  0  0  0  0  0  0  0  0
   -2.5668    0.8689   -0.9477 C   0  0  0  0  0  0  0  0  0  0  0  0
   -2.7463    0.6332   -2.3257 C   0  0  0  0  0  0  0  0  0  0  0  0
   -4.0383    0.5603   -2.8569 C   0  0  0  0  0  0  0  0  0  0  0  0
   -5.1484    0.7206   -2.0336 C   0  0  0  0  0  0  0  0  0  0  0  0
   -4.9972    0.9573   -0.6636 C   0  0  0  0  0  0  0  0  0  0  0  0
   -3.6952    1.0275   -0.1410 C   0  0  0  0  0  0  0  0  0  0  0  0
   -3.1877    1.3059    1.4804 S   0  0  0  0  0  0  0  0  0  0  0  0
    2.7502   -0.9736    1.7075 C   0  0  0  0  0  0  0  0  0  0  0  0
    3.8375   -0.7396    0.8640 C   0  0  0  0  0  0  0  0  0  0  0  0
    4.3385   -1.3098   -3.0521 H   0  0  0  0  0  0  0  0  0  0  0  0
    4.0510    0.4714   -2.9488 H   0  0  0  0  0  0  0  0  0  0  0  0
    5.6934   -0.1742   -3.0516 H   0  0  0  0  0  0  0  0  0  0  0  0
    2.2073   -0.7771   -2.1336 H   0  0  0  0  0  0  0  0  0  0  0  0
    0.3033   -1.1928   -0.6647 H   0  0  0  0  0  0  0  0  0  0  0  0
    0.4937    0.3735    3.6670 H   0  0  0  0  0  0  0  0  0  0  0  0
   -1.2252    0.0027    3.5256 H   0  0  0  0  0  0  0  0  0  0  0  0
   -0.5945    2.2344    2.5544 H   0  0  0  0  0  0  0  0  0  0  0  0
    0.5038    1.4635    1.4375 H   0  0  0  0  0  0  0  0  0  0  0  0
   -1.8778    0.5073   -2.9640 H   0  0  0  0  0  0  0  0  0  0  0  0
   -4.1727    0.3749   -3.9199 H   0  0  0  0  0  0  0  0  0  0  0  0
   -6.1480    0.6591   -2.4589 H   0  0  0  0  0  0  0  0  0  0  0  0
   -5.8643    1.0799   -0.0220 H   0  0  0  0  0  0  0  0  0  0  0  0
    2.9100   -1.0533    2.7801 H   0  0  0  0  0  0  0  0  0  0  0  0
    4.8336   -0.6266    1.2864 H   0  0  0  0  0  0  0  0  0  0  0  0
  1  2  1  0
  2  3  1  0
  3  4  2  0
  4  5  1  0
  5  6  2  0
  6  7  1  0
  7  8  2  0
  7  9  2  0
  7 10  1  0
 10 11  1  0
 11 12  1  0
 12 13  2  0
 13 14  1  0
 14 15  2  0
 15 16  1  0
 16 17  2  0
 17 18  1  0
 18 19  2  0
 19 20  1  0
  6 21  1  0
 21 22  2  0
 22  3  1  0
 20 12  1  0
 19 14  1  0
  1 23  1  0
  1 24  1  0
  1 25  1  0
  4 26  1  0
  5 27  1  0
 10 28  1  0
 10 29  1  0
 11 30  1  0
 11 31  1  0
 15 32  1  0
 16 33  1  0
 17 34  1  0
 18 35  1  0
 21 36  1  0
 22 37  1  0
M  END
