
     RDKit          3D

 49 51  0  0  0  0  0  0  0  0999 V2000
    5.2858   -2.5794   -1.8516 C   0  0  0  0  0  0  0  0  0  0  0  0
    4.7841   -1.3150   -2.2669 O   0  0  0  0  0  0  0  0  0  0  0  0
    4.2203   -0.5248   -1.3038 C   0  0  0  0  0  0  0  0  0  0  0  0
    4.0451   -0.8666    0.0392 C   0  0  0  0  0  0  0  0  0  0  0  0
    3.4474    0.0384    0.9227 C   0  0  0  0  0  0  0  0  0  0  0  0
    3.0107    1.2812    0.4552 C   0  0  0  0  0  0  0  0  0  0  0  0
    2.2724    2.4433    1.5872 S   0  0  0  0  0  6  0  0  0  0  0  0
    2.5059    3.7706    1.0590 O   0  0  0  0  0  0  0  0  0  0  0  0
    2.7079    2.0800    2.9198 O   0  0  0  0  0  0  0  0  0  0  0  0
    0.6177    2.0998    1.4627 N   0  0  0  0  0  0  0  0  0  0  0  0
   -0.1028    2.4935    0.2322 C   0  0  0  0  0  0  0  0  0  0  0  0
   -0.6323    1.2702   -0.5058 C   0  0  0  0  0  0  0  0  0  0  0  0
   -1.6088    0.4180    0.3469 C   0  0  0  0  0  0  0  0  0  0  0  0
   -3.0212    0.6026   -0.0788 N   0  0  0  0  0  0  0  0  0  0  0  0
   -4.0356    0.0919    0.8627 C   0  0  0  0  0  0  0  0  0  0  0  0
   -4.1037   -1.4354    0.9274 C   0  0  0  0  0  0  0  0  0  0  0  0
   -4.3653   -2.0275   -0.4524 C   0  0  0  0  0  0  0  0  0  0  0  0
   -3.3802   -1.4779   -1.4770 C   0  0  0  0  0  0  0  0  0  0  0  0
   -3.3061    0.0522   -1.4230 C   0  0  0  0  0  0  0  0  0  0  0  0
   -1.3700    0.7058    1.8483 C   0  0  0  0  0  0  0  0  0  0  0  0
    0.1151    0.8885    2.1402 C   0  0  0  0  0  0  0  0  0  0  0  0
    3.2067    1.6422   -0.8789 C   0  0  0  0  0  0  0  0  0  0  0  0
    3.8016    0.7318   -1.7542 C   0  0  0  0  0  0  0  0  0  0  0  0
    6.0796   -2.4644   -1.1062 H   0  0  0  0  0  0  0  0  0  0  0  0
    5.7201   -3.0707   -2.7276 H   0  0  0  0  0  0  0  0  0  0  0  0
    4.4799   -3.2188   -1.4765 H   0  0  0  0  0  0  0  0  0  0  0  0
    4.3687   -1.8250    0.4322 H   0  0  0  0  0  0  0  0  0  0  0  0
    3.3320   -0.2313    1.9705 H   0  0  0  0  0  0  0  0  0  0  0  0
   -0.9254    3.1631    0.5099 H   0  0  0  0  0  0  0  0  0  0  0  0
    0.5425    3.0675   -0.4397 H   0  0  0  0  0  0  0  0  0  0  0  0
    0.2105    0.6316   -0.8013 H   0  0  0  0  0  0  0  0  0  0  0  0
   -1.0828    1.6120   -1.4422 H   0  0  0  0  0  0  0  0  0  0  0  0
   -1.3330   -0.6328    0.1898 H   0  0  0  0  0  0  0  0  0  0  0  0
   -5.0162    0.4738    0.5464 H   0  0  0  0  0  0  0  0  0  0  0  0
   -3.9005    0.5050    1.8673 H   0  0  0  0  0  0  0  0  0  0  0  0
   -4.9045   -1.7385    1.6116 H   0  0  0  0  0  0  0  0  0  0  0  0
   -3.1702   -1.8423    1.3331 H   0  0  0  0  0  0  0  0  0  0  0  0
   -5.3875   -1.7802   -0.7647 H   0  0  0  0  0  0  0  0  0  0  0  0
   -4.2990   -3.1203   -0.4135 H   0  0  0  0  0  0  0  0  0  0  0  0
   -3.6867   -1.7932   -2.4812 H   0  0  0  0  0  0  0  0  0  0  0  0
   -2.3887   -1.9119   -1.3042 H   0  0  0  0  0  0  0  0  0  0  0  0
   -2.5835    0.3986   -2.1677 H   0  0  0  0  0  0  0  0  0  0  0  0
   -4.2686    0.4618   -1.7584 H   0  0  0  0  0  0  0  0  0  0  0  0
   -1.7498   -0.1240    2.4557 H   0  0  0  0  0  0  0  0  0  0  0  0
   -1.9097    1.6102    2.1595 H   0  0  0  0  0  0  0  0  0  0  0  0
    0.2504    1.0037    3.2210 H   0  0  0  0  0  0  0  0  0  0  0  0
    0.6681    0.0019    1.8148 H   0  0  0  0  0  0  0  0  0  0  0  0
    2.9077    2.6222   -1.2433 H   0  0  0  0  0  0  0  0  0  0  0  0
    3.9517    1.0060   -2.7963 H   0  0  0  0  0  0  0  0  0  0  0  0
  1  2  1  0
  2  3  1  0
  3  4  2  0
  4  5  1  0
  5  6  2  0
  6  7  1  0
  7  8  2  0
  7  9  2  0
  7 10  1  0
 10 11  1  0
 11 12  1  0
 12 13  1  0
 13 14  1  0
 14 15  1  0
 15 16  1  0
 16 17  1  0
 17 18  1  0
 18 19  1  0
 13 20  1  0
 20 21  1  0
  6 22  1  0
 22 23  2  0
 23  3  1  0
 21 10  1  0
 19 14  1  0
  1 24  1  0
  1 25  1  0
  1 26  1  0
  4 27  1  0
  5 28  1  0
 11 29  1  0
 11 30  1  0
 12 31  1  0
 12 32  1  0
 13 33  1  0
 15 34  1  0
 15 35  1  0
 16 36  1  0
 16 37  1  0
 17 38  1  0
 17 39  1  0
 18 40  1  0
 18 41  1  0
 19 42  1  0
 19 43  1  0
 20 44  1  0
 20 45  1  0
 21 46  1  0
 21 47  1  0
 22 48  1  0
 23 49  1  0
M  END
