
     RDKit          3D

 30 32  0  0  0  0  0  0  0  0999 V2000
   -5.3308   -0.3200    0.5127 C   0  0  0  0  0  0  0  0  0  0  0  0
   -4.0726   -0.9656    0.6624 O   0  0  0  0  0  0  0  0  0  0  0  0
   -2.9699   -0.2871    0.2249 C   0  0  0  0  0  0  0  0  0  0  0  0
   -2.9617    0.9815   -0.3426 C   0  0  0  0  0  0  0  0  0  0  0  0
   -1.7529    1.5505   -0.7486 C   0  0  0  0  0  0  0  0  0  0  0  0
   -0.5416    0.8603   -0.6044 C   0  0  0  0  0  0  0  0  0  0  0  0
   -0.5279   -0.4015   -0.0007 C   0  0  0  0  0  0  0  0  0  0  0  0
   -1.7584   -0.9648    0.3942 C   0  0  0  0  0  0  0  0  0  0  0  0
    0.6898   -1.2011    0.3253 C   0  0  0  0  0  0  0  0  0  0  0  0
    0.5588   -2.3701    0.6900 O   0  0  0  0  0  0  0  0  0  0  0  0
    2.0687   -0.6589    0.2797 C   0  0  0  0  0  0  0  0  0  0  0  0
    2.9907   -1.1384    1.2233 C   0  0  0  0  0  0  0  0  0  0  0  0
    4.3078   -0.6802    1.2228 C   0  0  0  0  0  0  0  0  0  0  0  0
    4.7148    0.2533    0.2742 C   0  0  0  0  0  0  0  0  0  0  0  0
    3.8082    0.7210   -0.6780 C   0  0  0  0  0  0  0  0  0  0  0  0
    2.4807    0.2616   -0.6882 C   0  0  0  0  0  0  0  0  0  0  0  0
    1.5150    0.7451   -1.7208 C   0  0  0  0  0  0  0  0  0  0  0  0
    0.5339    1.5545   -1.0834 O   0  0  0  0  0  0  0  0  0  0  0  0
   -6.1005   -0.9930    0.9023 H   0  0  0  0  0  0  0  0  0  0  0  0
   -5.3709    0.6057    1.0963 H   0  0  0  0  0  0  0  0  0  0  0  0
   -5.5551   -0.1325   -0.5426 H   0  0  0  0  0  0  0  0  0  0  0  0
   -3.8714    1.5546   -0.4859 H   0  0  0  0  0  0  0  0  0  0  0  0
   -1.7553    2.5420   -1.1974 H   0  0  0  0  0  0  0  0  0  0  0  0
   -1.7802   -1.9488    0.8627 H   0  0  0  0  0  0  0  0  0  0  0  0
    2.6805   -1.8735    1.9642 H   0  0  0  0  0  0  0  0  0  0  0  0
    5.0130   -1.0540    1.9608 H   0  0  0  0  0  0  0  0  0  0  0  0
    5.7406    0.6140    0.2726 H   0  0  0  0  0  0  0  0  0  0  0  0
    4.1463    1.4476   -1.4143 H   0  0  0  0  0  0  0  0  0  0  0  0
    2.0247    1.3807   -2.4541 H   0  0  0  0  0  0  0  0  0  0  0  0
    1.0757   -0.0828   -2.2941 H   0  0  0  0  0  0  0  0  0  0  0  0
  1  2  1  0
  2  3  1  0
  3  4  2  0
  4  5  1  0
  5  6  2  0
  6  7  1  0
  7  8  2  0
  7  9  1  0
  9 10  2  0
  9 11  1  0
 11 12  2  0
 12 13  1  0
 13 14  2  0
 14 15  1  0
 15 16  2  0
 16 17  1  0
 17 18  1  0
  8  3  1  0
 16 11  1  0
 18  6  1  0
  1 19  1  0
  1 20  1  0
  1 21  1  0
  4 22  1  0
  5 23  1  0
  8 24  1  0
 12 25  1  0
 13 26  1  0
 14 27  1  0
 15 28  1  0
 17 29  1  0
 17 30  1  0
M  END
