
     RDKit          3D

 40 42  0  0  0  0  0  0  0  0999 V2000
    6.9038   -0.0990    1.1867 C   0  0  0  0  0  0  0  0  0  0  0  0
    6.0764    0.3428    0.1171 O   0  0  0  0  0  0  0  0  0  0  0  0
    4.7297    0.1673    0.2644 C   0  0  0  0  0  0  0  0  0  0  0  0
    4.0903   -0.4091    1.3566 C   0  0  0  0  0  0  0  0  0  0  0  0
    2.6935   -0.5237    1.3679 C   0  0  0  0  0  0  0  0  0  0  0  0
    1.9113   -0.0756    0.3125 C   0  0  0  0  0  0  0  0  0  0  0  0
    0.5750   -0.2071    0.3685 N   0  0  0  0  0  0  0  0  0  0  0  0
   -0.2263    0.2316   -0.6413 C   0  0  0  0  0  0  0  0  0  0  0  0
   -1.5842    0.0733   -0.3991 N   0  0  0  0  0  0  0  0  0  0  0  0
   -1.9706   -1.2825    0.0184 C   0  0  0  0  0  0  0  0  0  0  0  0
   -3.2276   -1.2336    0.8868 C   0  0  0  0  0  0  0  0  0  0  0  0
   -4.3644   -0.4821    0.1862 C   0  0  0  0  0  0  0  0  0  0  0  0
   -5.5957   -0.3966    1.0847 C   0  0  0  0  0  0  0  0  0  0  0  0
   -3.8825    0.9159   -0.2153 C   0  0  0  0  0  0  0  0  0  0  0  0
   -2.6209    0.8481   -1.0787 C   0  0  0  0  0  0  0  0  0  0  0  0
    0.3577    0.8082   -1.7757 C   0  0  0  0  0  0  0  0  0  0  0  0
   -0.3762    1.2217   -2.9311 C   0  0  0  0  0  0  0  0  0  0  0  0
   -0.9427    1.5676   -3.8844 N   0  0  0  0  0  0  0  0  0  0  0  0
    1.7541    0.9441   -1.8384 C   0  0  0  0  0  0  0  0  0  0  0  0
    2.5563    0.5045   -0.7848 C   0  0  0  0  0  0  0  0  0  0  0  0
    3.9583    0.6227   -0.8056 C   0  0  0  0  0  0  0  0  0  0  0  0
    6.6805    0.4466    2.1095 H   0  0  0  0  0  0  0  0  0  0  0  0
    7.9423    0.1148    0.9162 H   0  0  0  0  0  0  0  0  0  0  0  0
    6.8136   -1.1802    1.3343 H   0  0  0  0  0  0  0  0  0  0  0  0
    4.6382   -0.7801    2.2163 H   0  0  0  0  0  0  0  0  0  0  0  0
    2.2014   -0.9744    2.2271 H   0  0  0  0  0  0  0  0  0  0  0  0
   -2.1570   -1.8941   -0.8739 H   0  0  0  0  0  0  0  0  0  0  0  0
   -1.1912   -1.7940    0.5956 H   0  0  0  0  0  0  0  0  0  0  0  0
   -3.5438   -2.2559    1.1257 H   0  0  0  0  0  0  0  0  0  0  0  0
   -2.9889   -0.7412    1.8387 H   0  0  0  0  0  0  0  0  0  0  0  0
   -4.6430   -1.0325   -0.7221 H   0  0  0  0  0  0  0  0  0  0  0  0
   -6.4132    0.1228    0.5738 H   0  0  0  0  0  0  0  0  0  0  0  0
   -5.9499   -1.3974    1.3533 H   0  0  0  0  0  0  0  0  0  0  0  0
   -5.3773    0.1451    2.0113 H   0  0  0  0  0  0  0  0  0  0  0  0
   -3.6714    1.5069    0.6858 H   0  0  0  0  0  0  0  0  0  0  0  0
   -4.6706    1.4432   -0.7657 H   0  0  0  0  0  0  0  0  0  0  0  0
   -2.8656    0.3907   -2.0445 H   0  0  0  0  0  0  0  0  0  0  0  0
   -2.2944    1.8808   -1.2453 H   0  0  0  0  0  0  0  0  0  0  0  0
    2.2152    1.3873   -2.7201 H   0  0  0  0  0  0  0  0  0  0  0  0
    4.4596    1.0730   -1.6599 H   0  0  0  0  0  0  0  0  0  0  0  0
  1  2  1  0
  2  3  1  0
  3  4  2  0
  4  5  1  0
  5  6  2  0
  6  7  1  0
  7  8  2  0
  8  9  1  0
  9 10  1  0
 10 11  1  0
 11 12  1  0
 12 13  1  0
 12 14  1  0
 14 15  1  0
  8 16  1  0
 16 17  1  0
 17 18  3  0
 16 19  2  0
 19 20  1  0
 20 21  2  0
 21  3  1  0
 20  6  1  0
 15  9  1  0
  1 22  1  0
  1 23  1  0
  1 24  1  0
  4 25  1  0
  5 26  1  0
 10 27  1  0
 10 28  1  0
 11 29  1  0
 11 30  1  0
 12 31  1  0
 13 32  1  0
 13 33  1  0
 13 34  1  0
 14 35  1  0
 14 36  1  0
 15 37  1  0
 15 38  1  0
 19 39  1  0
 21 40  1  0
M  END
