
     RDKit          3D

 36 37  0  0  0  0  0  0  0  0999 V2000
    6.3804    1.9822   -0.9090 C   0  0  0  0  0  0  0  0  0  0  0  0
    4.9959    1.7772   -0.6543 O   0  0  0  0  0  0  0  0  0  0  0  0
    4.5773    0.4826   -0.5119 C   0  0  0  0  0  0  0  0  0  0  0  0
    5.3785   -0.6551   -0.6225 C   0  0  0  0  0  0  0  0  0  0  0  0
    4.8246   -1.9251   -0.4404 C   0  0  0  0  0  0  0  0  0  0  0  0
    3.4663   -2.0629   -0.1568 C   0  0  0  0  0  0  0  0  0  0  0  0
    2.6511   -0.9295   -0.0631 C   0  0  0  0  0  0  0  0  0  0  0  0
    1.2038   -1.1196    0.2413 C   0  0  0  0  0  0  0  0  0  0  0  0
    0.8719   -2.0905    0.9114 O   0  0  0  0  0  0  0  0  0  0  0  0
    0.3624   -0.1799   -0.3052 N   0  0  0  0  0  0  0  0  0  0  0  0
   -1.0234   -0.0848   -0.1778 C   0  0  0  0  0  0  0  0  0  0  0  0
   -1.7991   -0.9202    0.6111 C   0  0  0  0  0  0  0  0  0  0  0  0
   -3.1838   -0.7206    0.6616 C   0  0  0  0  0  0  0  0  0  0  0  0
   -3.7640    0.3063   -0.0719 C   0  0  0  0  0  0  0  0  0  0  0  0
   -5.1447    0.5976   -0.0974 N   0  0  0  0  0  0  0  0  0  0  0  0
   -6.1486   -0.0569    0.5929 C   0  0  0  0  0  0  0  0  0  0  0  0
   -7.5099    0.5345    0.3228 C   0  0  0  0  0  0  0  0  0  0  0  0
   -6.0154   -0.9953    1.3693 O   0  0  0  0  0  0  0  0  0  0  0  0
   -2.8994    1.0914   -0.8307 C   0  0  0  0  0  0  0  0  0  0  0  0
   -1.5559    0.9236   -0.8997 N   0  0  0  0  0  0  0  0  0  0  0  0
    3.2149    0.3421   -0.2282 C   0  0  0  0  0  0  0  0  0  0  0  0
    6.6760    1.5339   -1.8633 H   0  0  0  0  0  0  0  0  0  0  0  0
    6.9941    1.6023   -0.0856 H   0  0  0  0  0  0  0  0  0  0  0  0
    6.5507    3.0607   -0.9811 H   0  0  0  0  0  0  0  0  0  0  0  0
    6.4394   -0.5895   -0.8415 H   0  0  0  0  0  0  0  0  0  0  0  0
    5.4535   -2.8090   -0.5167 H   0  0  0  0  0  0  0  0  0  0  0  0
    3.0432   -3.0552   -0.0110 H   0  0  0  0  0  0  0  0  0  0  0  0
    0.7269    0.5179   -0.9378 H   0  0  0  0  0  0  0  0  0  0  0  0
   -1.3696   -1.7253    1.1957 H   0  0  0  0  0  0  0  0  0  0  0  0
   -3.7699   -1.3884    1.2848 H   0  0  0  0  0  0  0  0  0  0  0  0
   -5.4267    1.3766   -0.6797 H   0  0  0  0  0  0  0  0  0  0  0  0
   -7.6733    1.3853    0.9894 H   0  0  0  0  0  0  0  0  0  0  0  0
   -7.5968    0.8603   -0.7177 H   0  0  0  0  0  0  0  0  0  0  0  0
   -8.2772   -0.2235    0.5049 H   0  0  0  0  0  0  0  0  0  0  0  0
   -3.2690    1.9159   -1.4338 H   0  0  0  0  0  0  0  0  0  0  0  0
    2.6158    1.2412   -0.1114 H   0  0  0  0  0  0  0  0  0  0  0  0
  1  2  1  0
  2  3  1  0
  3  4  2  0
  4  5  1  0
  5  6  2  0
  6  7  1  0
  7  8  1  0
  8  9  2  0
  8 10  1  0
 10 11  1  0
 11 12  2  0
 12 13  1  0
 13 14  2  0
 14 15  1  0
 15 16  1  0
 16 17  1  0
 16 18  2  0
 14 19  1  0
 19 20  2  0
  7 21  2  0
 21  3  1  0
 20 11  1  0
  1 22  1  0
  1 23  1  0
  1 24  1  0
  4 25  1  0
  5 26  1  0
  6 27  1  0
 10 28  1  0
 12 29  1  0
 13 30  1  0
 15 31  1  0
 17 32  1  0
 17 33  1  0
 17 34  1  0
 19 35  1  0
 21 36  1  0
M  END
