
     RDKit          3D

 30 32  0  0  0  0  0  0  0  0999 V2000
    5.6026    0.8480   -0.2181 C   0  0  0  0  0  0  0  0  0  0  0  0
    4.2278    1.1803   -0.0694 O   0  0  0  0  0  0  0  0  0  0  0  0
    3.3207    0.1759   -0.2684 C   0  0  0  0  0  0  0  0  0  0  0  0
    3.6219   -1.1445   -0.6039 C   0  0  0  0  0  0  0  0  0  0  0  0
    2.5951   -2.0750   -0.7791 C   0  0  0  0  0  0  0  0  0  0  0  0
    1.2638   -1.6894   -0.6196 C   0  0  0  0  0  0  0  0  0  0  0  0
    0.9473   -0.3672   -0.2829 C   0  0  0  0  0  0  0  0  0  0  0  0
   -0.4827    0.0079   -0.1211 C   0  0  0  0  0  0  0  0  0  0  0  0
   -1.4488   -0.8367   -0.2785 N   0  0  0  0  0  0  0  0  0  0  0  0
   -2.7451   -0.3627   -0.0993 C   0  0  0  0  0  0  0  0  0  0  0  0
   -3.8247   -1.2338   -0.2576 C   0  0  0  0  0  0  0  0  0  0  0  0
   -5.1347   -0.7791   -0.0825 C   0  0  0  0  0  0  0  0  0  0  0  0
   -5.3723    0.5536    0.2529 C   0  0  0  0  0  0  0  0  0  0  0  0
   -4.2990    1.4293    0.4126 C   0  0  0  0  0  0  0  0  0  0  0  0
   -2.9920    0.9596    0.2340 C   0  0  0  0  0  0  0  0  0  0  0  0
   -1.8353    1.8474    0.3925 C   0  0  0  0  0  0  0  0  0  0  0  0
   -1.9868    3.0278    0.6867 O   0  0  0  0  0  0  0  0  0  0  0  0
   -0.6064    1.3134    0.2021 O   0  0  0  0  0  0  0  0  0  0  0  0
    1.9846    0.5596   -0.1091 C   0  0  0  0  0  0  0  0  0  0  0  0
    5.8208    0.5192   -1.2395 H   0  0  0  0  0  0  0  0  0  0  0  0
    5.9076    0.0936    0.5146 H   0  0  0  0  0  0  0  0  0  0  0  0
    6.1877    1.7528   -0.0275 H   0  0  0  0  0  0  0  0  0  0  0  0
    4.6444   -1.4826   -0.7365 H   0  0  0  0  0  0  0  0  0  0  0  0
    2.8329   -3.1034   -1.0406 H   0  0  0  0  0  0  0  0  0  0  0  0
    0.4769   -2.4279   -0.7600 H   0  0  0  0  0  0  0  0  0  0  0  0
   -3.6416   -2.2730   -0.5191 H   0  0  0  0  0  0  0  0  0  0  0  0
   -5.9680   -1.4663   -0.2083 H   0  0  0  0  0  0  0  0  0  0  0  0
   -6.3909    0.9091    0.3896 H   0  0  0  0  0  0  0  0  0  0  0  0
   -4.4792    2.4698    0.6743 H   0  0  0  0  0  0  0  0  0  0  0  0
    1.7732    1.5941    0.1525 H   0  0  0  0  0  0  0  0  0  0  0  0
  1  2  1  0
  2  3  1  0
  3  4  2  0
  4  5  1  0
  5  6  2  0
  6  7  1  0
  7  8  1  0
  8  9  2  0
  9 10  1  0
 10 11  2  0
 11 12  1  0
 12 13  2  0
 13 14  1  0
 14 15  2  0
 15 16  1  0
 16 17  2  0
 16 18  1  0
  7 19  2  0
 19  3  1  0
 18  8  1  0
 15 10  1  0
  1 20  1  0
  1 21  1  0
  1 22  1  0
  4 23  1  0
  5 24  1  0
  6 25  1  0
 11 26  1  0
 12 27  1  0
 13 28  1  0
 14 29  1  0
 19 30  1  0
M  END
