
     RDKit          3D

 37 43  0  0  0  0  0  0  0  0999 V2000
    6.4771    1.4835    0.1716 Si  0  0  0  0  0  4  0  0  0  0  0  0
    4.9275    2.3212    0.8741 C   0  0  0  0  0  0  0  0  0  0  0  0
    3.8038    1.6324    0.5750 C   0  0  0  0  0  0  0  0  0  0  0  0
    3.9918    0.4307   -0.1964 C   0  0  0  0  0  0  0  0  0  0  0  0
    5.3516    0.1465   -0.5317 C   0  0  0  0  0  0  0  0  0  0  0  0
    5.5564   -0.9808   -1.2587 C   0  0  0  0  0  0  0  0  0  0  0  0
    4.0493   -1.7385   -1.5561 S   0  0  0  0  0  0  0  0  0  0  0  0
    3.1186   -0.5258   -0.6915 C   0  0  0  0  0  0  0  0  0  0  0  0
    1.6687   -0.6701   -0.6128 C   0  0  0  0  0  0  0  0  0  0  0  0
    0.8970   -1.6865   -1.1579 C   0  0  0  0  0  0  0  0  0  0  0  0
   -0.4733   -1.5004   -0.8820 C   0  0  0  0  0  0  0  0  0  0  0  0
   -1.5085   -2.3929   -1.3188 C   0  0  0  0  0  0  0  0  0  0  0  0
   -1.2525   -3.4820   -2.0289 N   0  0  0  0  0  0  0  0  0  0  0  0
   -2.7762   -4.1351   -2.2592 S   0  0  0  0  0  0  0  0  0  0  0  0
   -3.7149   -3.0123   -1.4485 N   0  0  0  0  0  0  0  0  0  0  0  0
   -2.8757   -2.0725   -0.9593 C   0  0  0  0  0  0  0  0  0  0  0  0
   -3.2336   -0.9190   -0.1971 C   0  0  0  0  0  0  0  0  0  0  0  0
   -4.5801   -0.6317    0.1393 C   0  0  0  0  0  0  0  0  0  0  0  0
   -4.8526    0.5222    0.8917 C   0  0  0  0  0  0  0  0  0  0  0  0
   -6.0210    1.1385    1.4128 C   0  0  0  0  0  0  0  0  0  0  0  0
   -5.6023    2.2713    2.0716 C   0  0  0  0  0  0  0  0  0  0  0  0
   -4.2522    2.3980    1.9934 O   0  0  0  0  0  0  0  0  0  0  0  0
   -3.7934    1.3347    1.2758 C   0  0  0  0  0  0  0  0  0  0  0  0
   -2.4538    1.0926    0.9685 C   0  0  0  0  0  0  0  0  0  0  0  0
   -2.1673   -0.0654    0.2118 C   0  0  0  0  0  0  0  0  0  0  0  0
   -0.8149   -0.3848   -0.1453 C   0  0  0  0  0  0  0  0  0  0  0  0
    0.6570    0.4552    0.2081 S   0  0  0  0  0  0  0  0  0  0  0  0
    7.3724    1.0074    1.2550 H   0  0  0  0  0  0  0  0  0  0  0  0
    7.1265    2.3278   -0.8617 H   0  0  0  0  0  0  0  0  0  0  0  0
    4.9978    3.2378    1.4376 H   0  0  0  0  0  0  0  0  0  0  0  0
    2.8348    1.9808    0.9048 H   0  0  0  0  0  0  0  0  0  0  0  0
    6.4776   -1.4075   -1.6319 H   0  0  0  0  0  0  0  0  0  0  0  0
    1.2972   -2.5191   -1.7246 H   0  0  0  0  0  0  0  0  0  0  0  0
   -5.3868   -1.2881   -0.1767 H   0  0  0  0  0  0  0  0  0  0  0  0
   -7.0422    0.7978    1.3190 H   0  0  0  0  0  0  0  0  0  0  0  0
   -6.1126    3.0519    2.6186 H   0  0  0  0  0  0  0  0  0  0  0  0
   -1.6912    1.7822    1.3103 H   0  0  0  0  0  0  0  0  0  0  0  0
  1  2  1  0
  2  3  2  0
  3  4  1  0
  4  5  1  0
  5  6  2  0
  6  7  1  0
  7  8  1  0
  8  9  1  0
  9 10  2  0
 10 11  1  0
 11 12  1  0
 12 13  2  0
 13 14  1  0
 14 15  1  0
 15 16  2  0
 16 17  1  0
 17 18  2  0
 18 19  1  0
 19 20  1  0
 20 21  2  0
 21 22  1  0
 22 23  1  0
 23 24  1  0
 24 25  2  0
 25 26  1  0
 26 27  1  0
  5  1  1  0
 27  9  1  0
  8  4  2  0
 26 11  2  0
 16 12  1  0
 25 17  1  0
 23 19  2  0
  1 28  1  0
  1 29  1  0
  2 30  1  0
  3 31  1  0
  6 32  1  0
 10 33  1  0
 18 34  1  0
 20 35  1  0
 21 36  1  0
 24 37  1  0
M  END
