
     RDKit          3D

 29 29  0  0  0  0  0  0  0  0999 V2000
   -3.2161    2.1723   -0.8798 C   0  0  0  0  0  0  0  0  0  0  0  0
   -2.3522    1.0615   -1.0777 O   0  0  0  0  0  0  0  0  0  0  0  0
   -1.5053    0.7263   -0.0534 C   0  0  0  0  0  0  0  0  0  0  0  0
   -1.5383    1.3111    1.2165 C   0  0  0  0  0  0  0  0  0  0  0  0
   -0.6105    0.9405    2.1921 C   0  0  0  0  0  0  0  0  0  0  0  0
    0.3635   -0.0142    1.9092 C   0  0  0  0  0  0  0  0  0  0  0  0
    0.4145   -0.6254    0.6498 C   0  0  0  0  0  0  0  0  0  0  0  0
    1.4960   -1.6434    0.3579 C   0  0  0  0  0  0  0  0  0  0  0  0
    2.6625   -1.0629   -0.4391 C   0  0  0  0  0  0  0  0  0  0  0  0
    3.5449   -0.1837    0.4034 C   0  0  0  0  0  0  0  0  0  0  0  0
    3.6927   -0.2226    1.6136 O   0  0  0  0  0  0  0  0  0  0  0  0
    4.2630    0.6800   -0.3420 O   0  0  0  0  0  0  0  0  0  0  0  0
   -0.5397   -0.2647   -0.3210 C   0  0  0  0  0  0  0  0  0  0  0  0
   -0.4238   -0.8758   -1.5488 O   0  0  0  0  0  0  0  0  0  0  0  0
   -1.6139   -1.5598   -1.9384 C   0  0  0  0  0  0  0  0  0  0  0  0
   -3.7583    2.3440   -1.8148 H   0  0  0  0  0  0  0  0  0  0  0  0
   -3.9563    1.9600   -0.1017 H   0  0  0  0  0  0  0  0  0  0  0  0
   -2.6500    3.0818   -0.6525 H   0  0  0  0  0  0  0  0  0  0  0  0
   -2.2708    2.0663    1.4805 H   0  0  0  0  0  0  0  0  0  0  0  0
   -0.6396    1.4067    3.1740 H   0  0  0  0  0  0  0  0  0  0  0  0
    1.0908   -0.2746    2.6767 H   0  0  0  0  0  0  0  0  0  0  0  0
    1.8519   -2.0853    1.2975 H   0  0  0  0  0  0  0  0  0  0  0  0
    1.0528   -2.4771   -0.2013 H   0  0  0  0  0  0  0  0  0  0  0  0
    3.2896   -1.8790   -0.8150 H   0  0  0  0  0  0  0  0  0  0  0  0
    2.2986   -0.4870   -1.2971 H   0  0  0  0  0  0  0  0  0  0  0  0
    4.7931    1.1773    0.3148 H   0  0  0  0  0  0  0  0  0  0  0  0
   -1.3153   -2.4416   -2.5139 H   0  0  0  0  0  0  0  0  0  0  0  0
   -2.2081   -1.9051   -1.0842 H   0  0  0  0  0  0  0  0  0  0  0  0
   -2.2159   -0.9254   -2.5953 H   0  0  0  0  0  0  0  0  0  0  0  0
  1  2  1  0
  2  3  1  0
  3  4  2  0
  4  5  1  0
  5  6  2  0
  6  7  1  0
  7  8  1  0
  8  9  1  0
  9 10  1  0
 10 11  2  0
 10 12  1  0
  7 13  2  0
 13 14  1  0
 14 15  1  0
 13  3  1  0
  1 16  1  0
  1 17  1  0
  1 18  1  0
  4 19  1  0
  5 20  1  0
  6 21  1  0
  8 22  1  0
  8 23  1  0
  9 24  1  0
  9 25  1  0
 12 26  1  0
 15 27  1  0
 15 28  1  0
 15 29  1  0
M  END
