
     RDKit          3D

 41 43  0  0  0  0  0  0  0  0999 V2000
   -7.5559    0.4389   -2.9318 C   0  0  0  0  0  0  0  0  0  0  0  0
   -6.1839    0.1286   -2.7184 O   0  0  0  0  0  0  0  0  0  0  0  0
   -5.6640    0.4395   -1.4914 C   0  0  0  0  0  0  0  0  0  0  0  0
   -6.3578    1.0134   -0.4290 C   0  0  0  0  0  0  0  0  0  0  0  0
   -5.6952    1.2768    0.7716 C   0  0  0  0  0  0  0  0  0  0  0  0
   -4.3394    0.9692    0.9169 C   0  0  0  0  0  0  0  0  0  0  0  0
   -3.6325    0.3929   -0.1371 C   0  0  0  0  0  0  0  0  0  0  0  0
   -2.2655    0.0477   -0.0782 N   0  0  0  0  0  0  0  0  0  0  0  0
   -1.3958    0.2210    0.9856 C   0  0  0  0  0  0  0  0  0  0  0  0
   -1.6601    0.7130    2.0763 O   0  0  0  0  0  0  0  0  0  0  0  0
   -0.0063   -0.2885    0.6551 C   0  0  0  0  0  0  0  0  0  0  0  0
    0.9577   -0.0686    1.8150 C   0  0  0  0  0  0  0  0  0  0  0  0
    2.3094   -0.5582    1.4681 C   0  0  0  0  0  0  0  0  0  0  0  0
    3.2607    0.0292    0.7814 N   0  0  0  0  0  0  0  0  0  0  0  0
    4.2617   -0.9261    0.7728 C   0  0  0  0  0  0  0  0  0  0  0  0
    5.5414   -0.6860    0.1184 C   0  0  0  0  0  0  0  0  0  0  0  0
    5.8407    0.5951   -0.3792 C   0  0  0  0  0  0  0  0  0  0  0  0
    7.0634    0.8552   -1.0067 C   0  0  0  0  0  0  0  0  0  0  0  0
    8.0049   -0.1616   -1.1487 C   0  0  0  0  0  0  0  0  0  0  0  0
    7.7218   -1.4367   -0.6644 C   0  0  0  0  0  0  0  0  0  0  0  0
    6.5006   -1.6922   -0.0376 C   0  0  0  0  0  0  0  0  0  0  0  0
    6.2808   -2.9411    0.3998 F   0  0  0  0  0  0  0  0  0  0  0  0
    3.9268   -2.0549    1.4193 N   0  0  0  0  0  0  0  0  0  0  0  0
    2.6374   -1.8127    1.8807 O   0  0  0  0  0  0  0  0  0  0  0  0
   -4.3069    0.1321   -1.3379 C   0  0  0  0  0  0  0  0  0  0  0  0
   -7.8131    0.1381   -3.9521 H   0  0  0  0  0  0  0  0  0  0  0  0
   -7.7344    1.5159   -2.8452 H   0  0  0  0  0  0  0  0  0  0  0  0
   -8.1984   -0.1244   -2.2466 H   0  0  0  0  0  0  0  0  0  0  0  0
   -7.4099    1.2671   -0.4977 H   0  0  0  0  0  0  0  0  0  0  0  0
   -6.2349    1.7239    1.6027 H   0  0  0  0  0  0  0  0  0  0  0  0
   -3.8687    1.1922    1.8692 H   0  0  0  0  0  0  0  0  0  0  0  0
   -1.8845   -0.3730   -0.9175 H   0  0  0  0  0  0  0  0  0  0  0  0
    0.3522    0.2336   -0.2413 H   0  0  0  0  0  0  0  0  0  0  0  0
   -0.0768   -1.3583    0.4192 H   0  0  0  0  0  0  0  0  0  0  0  0
    1.0159    0.9983    2.0620 H   0  0  0  0  0  0  0  0  0  0  0  0
    0.5947   -0.5803    2.7147 H   0  0  0  0  0  0  0  0  0  0  0  0
    5.1204    1.4056   -0.2762 H   0  0  0  0  0  0  0  0  0  0  0  0
    7.2785    1.8536   -1.3815 H   0  0  0  0  0  0  0  0  0  0  0  0
    8.9564    0.0385   -1.6354 H   0  0  0  0  0  0  0  0  0  0  0  0
    8.4440   -2.2410   -0.7688 H   0  0  0  0  0  0  0  0  0  0  0  0
   -3.7852   -0.3157   -2.1795 H   0  0  0  0  0  0  0  0  0  0  0  0
  1  2  1  0
  2  3  1  0
  3  4  2  0
  4  5  1  0
  5  6  2  0
  6  7  1  0
  7  8  1  0
  8  9  1  0
  9 10  2  0
  9 11  1  0
 11 12  1  0
 12 13  1  0
 13 14  2  0
 14 15  1  0
 15 16  1  0
 16 17  2  0
 17 18  1  0
 18 19  2  0
 19 20  1  0
 20 21  2  0
 21 22  1  0
 15 23  2  0
 23 24  1  0
  7 25  2  0
 25  3  1  0
 24 13  1  0
 21 16  1  0
  1 26  1  0
  1 27  1  0
  1 28  1  0
  4 29  1  0
  5 30  1  0
  6 31  1  0
  8 32  1  0
 11 33  1  0
 11 34  1  0
 12 35  1  0
 12 36  1  0
 17 37  1  0
 18 38  1  0
 19 39  1  0
 20 40  1  0
 25 41  1  0
M  END
