
     RDKit          3D

 36 36  0  0  0  0  0  0  0  0999 V2000
   -2.2342    0.6769   -3.7038 C   0  0  0  0  0  0  0  0  0  0  0  0
   -1.5111    0.3873   -2.5155 O   0  0  0  0  0  0  0  0  0  0  0  0
   -2.2392    0.2312   -1.3640 C   0  0  0  0  0  0  0  0  0  0  0  0
   -3.6262    0.0818   -1.3130 C   0  0  0  0  0  0  0  0  0  0  0  0
   -4.2712   -0.0812   -0.0840 C   0  0  0  0  0  0  0  0  0  0  0  0
   -3.5400   -0.0943    1.1066 C   0  0  0  0  0  0  0  0  0  0  0  0
   -2.1524    0.0555    1.0800 C   0  0  0  0  0  0  0  0  0  0  0  0
   -1.3474    0.0448    2.1898 O   0  0  0  0  0  0  0  0  0  0  0  0
   -1.9801    0.2569    3.4443 C   0  0  0  0  0  0  0  0  0  0  0  0
   -1.5095    0.1960   -0.1625 C   0  0  0  0  0  0  0  0  0  0  0  0
   -0.1453    0.3875   -0.2011 O   0  0  0  0  0  0  0  0  0  0  0  0
    0.5218   -0.8770   -0.2797 C   0  0  0  0  0  0  0  0  0  0  0  0
    2.0428   -0.6538   -0.3512 C   0  0  0  0  0  0  0  0  0  0  0  0
    2.5945   -0.1190    0.9025 N   0  0  0  0  0  0  0  0  0  0  0  0
    4.0543   -0.1614    0.9540 C   0  0  0  0  0  0  0  0  0  0  0  0
    4.7543    0.8144   -0.0012 C   0  0  0  0  0  0  0  0  0  0  0  0
    6.1710    0.7083    0.1351 O   0  0  0  0  0  0  0  0  0  0  0  0
   -2.8230   -0.1888   -4.0238 H   0  0  0  0  0  0  0  0  0  0  0  0
   -1.5076    0.8937   -4.4928 H   0  0  0  0  0  0  0  0  0  0  0  0
   -2.8668    1.5626   -3.5815 H   0  0  0  0  0  0  0  0  0  0  0  0
   -4.2346    0.0814   -2.2110 H   0  0  0  0  0  0  0  0  0  0  0  0
   -5.3519   -0.2000   -0.0540 H   0  0  0  0  0  0  0  0  0  0  0  0
   -4.0813   -0.2310    2.0367 H   0  0  0  0  0  0  0  0  0  0  0  0
   -1.1959    0.3888    4.1960 H   0  0  0  0  0  0  0  0  0  0  0  0
   -2.5915    1.1657    3.4376 H   0  0  0  0  0  0  0  0  0  0  0  0
   -2.5735   -0.6163    3.7337 H   0  0  0  0  0  0  0  0  0  0  0  0
    0.2774   -1.5035    0.5878 H   0  0  0  0  0  0  0  0  0  0  0  0
    0.2094   -1.4063   -1.1890 H   0  0  0  0  0  0  0  0  0  0  0  0
    2.5129   -1.6172   -0.5810 H   0  0  0  0  0  0  0  0  0  0  0  0
    2.2570    0.0443   -1.1676 H   0  0  0  0  0  0  0  0  0  0  0  0
    2.2011   -0.6262    1.6945 H   0  0  0  0  0  0  0  0  0  0  0  0
    4.4196   -1.1823    0.7854 H   0  0  0  0  0  0  0  0  0  0  0  0
    4.3682    0.0877    1.9754 H   0  0  0  0  0  0  0  0  0  0  0  0
    4.4711    1.8469    0.2270 H   0  0  0  0  0  0  0  0  0  0  0  0
    4.5042    0.6132   -1.0472 H   0  0  0  0  0  0  0  0  0  0  0  0
    6.4228   -0.1821   -0.1626 H   0  0  0  0  0  0  0  0  0  0  0  0
  1  2  1  0
  2  3  1  0
  3  4  2  0
  4  5  1  0
  5  6  2  0
  6  7  1  0
  7  8  1  0
  8  9  1  0
  7 10  2  0
 10 11  1  0
 11 12  1  0
 12 13  1  0
 13 14  1  0
 14 15  1  0
 15 16  1  0
 16 17  1  0
 10  3  1  0
  1 18  1  0
  1 19  1  0
  1 20  1  0
  4 21  1  0
  5 22  1  0
  6 23  1  0
  9 24  1  0
  9 25  1  0
  9 26  1  0
 12 27  1  0
 12 28  1  0
 13 29  1  0
 13 30  1  0
 14 31  1  0
 15 32  1  0
 15 33  1  0
 16 34  1  0
 16 35  1  0
 17 36  1  0
M  END
