
     RDKit          3D

 31 32  0  0  0  0  0  0  0  0999 V2000
   -4.4090    2.5033    0.2530 C   0  0  0  0  0  0  0  0  0  0  0  0
   -3.0518    2.1021    0.1227 O   0  0  0  0  0  0  0  0  0  0  0  0
   -2.8055    0.7704   -0.0682 C   0  0  0  0  0  0  0  0  0  0  0  0
   -3.7732   -0.2353   -0.1008 C   0  0  0  0  0  0  0  0  0  0  0  0
   -3.3994   -1.5695   -0.3020 C   0  0  0  0  0  0  0  0  0  0  0  0
   -2.0560   -1.9121   -0.4705 C   0  0  0  0  0  0  0  0  0  0  0  0
   -1.0769   -0.9194   -0.4383 C   0  0  0  0  0  0  0  0  0  0  0  0
    0.3328   -1.2296   -0.6061 C   0  0  0  0  0  0  0  0  0  0  0  0
    1.2455   -0.2477   -0.5613 C   0  0  0  0  0  0  0  0  0  0  0  0
    2.6541   -0.6589   -0.7696 C   0  0  0  0  0  0  0  0  0  0  0  0
    2.9622   -1.1729   -1.8459 O   0  0  0  0  0  0  0  0  0  0  0  0
    3.5472   -0.5055    0.2821 N   0  0  0  0  0  0  0  0  0  0  0  0
    3.2292    0.0933    1.5719 C   0  0  0  0  0  0  0  0  0  0  0  0
    4.9585   -0.7464    0.0295 C   0  0  0  0  0  0  0  0  0  0  0  0
    0.8705    1.1657   -0.3788 C   0  0  0  0  0  0  0  0  0  0  0  0
    1.6996    2.0687   -0.3522 O   0  0  0  0  0  0  0  0  0  0  0  0
   -0.4851    1.4268   -0.2104 O   0  0  0  0  0  0  0  0  0  0  0  0
   -1.4635    0.4055   -0.2396 C   0  0  0  0  0  0  0  0  0  0  0  0
   -4.9814    2.2608   -0.6484 H   0  0  0  0  0  0  0  0  0  0  0  0
   -4.8668    2.0606    1.1438 H   0  0  0  0  0  0  0  0  0  0  0  0
   -4.4262    3.5905    0.3757 H   0  0  0  0  0  0  0  0  0  0  0  0
   -4.8288   -0.0177    0.0265 H   0  0  0  0  0  0  0  0  0  0  0  0
   -4.1618   -2.3452   -0.3281 H   0  0  0  0  0  0  0  0  0  0  0  0
   -1.7889   -2.9547   -0.6274 H   0  0  0  0  0  0  0  0  0  0  0  0
    0.6225   -2.2628   -0.7749 H   0  0  0  0  0  0  0  0  0  0  0  0
    3.5357    1.1431    1.5562 H   0  0  0  0  0  0  0  0  0  0  0  0
    3.7803   -0.4339    2.3565 H   0  0  0  0  0  0  0  0  0  0  0  0
    2.1644    0.0266    1.8027 H   0  0  0  0  0  0  0  0  0  0  0  0
    5.1303   -1.2442   -0.9282 H   0  0  0  0  0  0  0  0  0  0  0  0
    5.3606   -1.3764    0.8285 H   0  0  0  0  0  0  0  0  0  0  0  0
    5.4810    0.2150    0.0247 H   0  0  0  0  0  0  0  0  0  0  0  0
  1  2  1  0
  2  3  1  0
  3  4  2  0
  4  5  1  0
  5  6  2  0
  6  7  1  0
  7  8  1  0
  8  9  2  0
  9 10  1  0
 10 11  2  0
 10 12  1  0
 12 13  1  0
 12 14  1  0
  9 15  1  0
 15 16  2  0
 15 17  1  0
 17 18  1  0
 18  3  1  0
 18  7  2  0
  1 19  1  0
  1 20  1  0
  1 21  1  0
  4 22  1  0
  5 23  1  0
  6 24  1  0
  8 25  1  0
 13 26  1  0
 13 27  1  0
 13 28  1  0
 14 29  1  0
 14 30  1  0
 14 31  1  0
M  END
