
     RDKit          3D

 41 44  0  0  0  0  0  0  0  0999 V2000
   -4.4015   -1.8082    1.8825 C   0  0  0  0  0  0  0  0  0  0  0  0
   -3.3615   -1.3841    1.0092 O   0  0  0  0  0  0  0  0  0  0  0  0
   -3.3829   -0.0836    0.5789 C   0  0  0  0  0  0  0  0  0  0  0  0
   -4.3417    0.8602    0.9665 C   0  0  0  0  0  0  0  0  0  0  0  0
   -4.2812    2.1729    0.4923 C   0  0  0  0  0  0  0  0  0  0  0  0
   -3.2612    2.5578   -0.3696 C   0  0  0  0  0  0  0  0  0  0  0  0
   -2.3018    1.6277   -0.7630 C   0  0  0  0  0  0  0  0  0  0  0  0
   -2.3518    0.2937   -0.3047 C   0  0  0  0  0  0  0  0  0  0  0  0
   -1.2829   -0.7039   -0.7411 C   0  0  0  0  0  0  0  0  0  0  0  0
    0.0583   -0.3925   -0.1193 C   0  0  0  0  0  0  0  0  0  0  0  0
    1.2071   -0.5671   -0.8044 C   0  0  0  0  0  0  0  0  0  0  0  0
    2.5103   -0.2282   -0.1831 C   0  0  0  0  0  0  0  0  0  0  0  0
    2.8014   -0.5281    1.1559 C   0  0  0  0  0  0  0  0  0  0  0  0
    4.0430   -0.1999    1.7117 C   0  0  0  0  0  0  0  0  0  0  0  0
    5.0281    0.4176    0.9346 C   0  0  0  0  0  0  0  0  0  0  0  0
    6.3478    0.7967    1.5375 C   0  0  0  0  0  0  0  0  0  0  0  0
    4.7461    0.7187   -0.4013 C   0  0  0  0  0  0  0  0  0  0  0  0
    3.5047    0.3897   -0.9549 C   0  0  0  0  0  0  0  0  0  0  0  0
    1.2266   -1.0802   -2.0865 N   0  0  0  0  0  0  0  0  0  0  0  0
    0.0747   -1.1106   -2.6765 C   0  0  0  0  0  0  0  0  0  0  0  0
   -0.0846   -1.7206   -3.8994 N   0  0  0  0  0  0  0  0  0  0  0  0
   -1.3332   -1.8035   -4.1099 N   0  0  0  0  0  0  0  0  0  0  0  0
   -2.0138   -1.3093   -3.0119 N   0  0  0  0  0  0  0  0  0  0  0  0
   -1.1127   -0.6447   -2.1854 N   0  0  0  0  0  0  0  0  0  0  0  0
   -5.3812   -1.7216    1.4014 H   0  0  0  0  0  0  0  0  0  0  0  0
   -4.2352   -2.8656    2.1099 H   0  0  0  0  0  0  0  0  0  0  0  0
   -4.3718   -1.2564    2.8277 H   0  0  0  0  0  0  0  0  0  0  0  0
   -5.1519    0.6092    1.6434 H   0  0  0  0  0  0  0  0  0  0  0  0
   -5.0308    2.8968    0.8028 H   0  0  0  0  0  0  0  0  0  0  0  0
   -3.2092    3.5811   -0.7332 H   0  0  0  0  0  0  0  0  0  0  0  0
   -1.5042    1.9462   -1.4334 H   0  0  0  0  0  0  0  0  0  0  0  0
   -1.5567   -1.7256   -0.4511 H   0  0  0  0  0  0  0  0  0  0  0  0
    0.0552   -0.0007    0.8924 H   0  0  0  0  0  0  0  0  0  0  0  0
    2.0703   -1.0347    1.7808 H   0  0  0  0  0  0  0  0  0  0  0  0
    4.2372   -0.4398    2.7546 H   0  0  0  0  0  0  0  0  0  0  0  0
    6.6293    0.0982    2.3326 H   0  0  0  0  0  0  0  0  0  0  0  0
    6.2914    1.8060    1.9566 H   0  0  0  0  0  0  0  0  0  0  0  0
    7.1433    0.7694    0.7854 H   0  0  0  0  0  0  0  0  0  0  0  0
    5.4913    1.2052   -1.0263 H   0  0  0  0  0  0  0  0  0  0  0  0
    3.3143    0.6202   -2.0015 H   0  0  0  0  0  0  0  0  0  0  0  0
   -2.8287   -0.7583   -3.2812 H   0  0  0  0  0  0  0  0  0  0  0  0
  1  2  1  0
  2  3  1  0
  3  4  2  0
  4  5  1  0
  5  6  2  0
  6  7  1  0
  7  8  2  0
  8  9  1  0
  9 10  1  0
 10 11  2  0
 11 12  1  0
 12 13  2  0
 13 14  1  0
 14 15  2  0
 15 16  1  0
 15 17  1  0
 17 18  2  0
 11 19  1  0
 19 20  2  0
 20 21  1  0
 21 22  2  0
 22 23  1  0
 23 24  1  0
  8  3  1  0
 24  9  1  0
 18 12  1  0
 24 20  1  0
  1 25  1  0
  1 26  1  0
  1 27  1  0
  4 28  1  0
  5 29  1  0
  6 30  1  0
  7 31  1  0
  9 32  1  0
 10 33  1  0
 13 34  1  0
 14 35  1  0
 16 36  1  0
 16 37  1  0
 16 38  1  0
 17 39  1  0
 18 40  1  0
 23 41  1  0
M  END
