
     RDKit          3D

 27 29  0  0  0  0  0  0  0  0999 V2000
   -3.0192    2.1546    1.1061 C   0  0  0  0  0  0  0  0  0  0  0  0
   -1.8677    1.3658    0.8308 O   0  0  0  0  0  0  0  0  0  0  0  0
   -1.9996    0.3294   -0.0532 C   0  0  0  0  0  0  0  0  0  0  0  0
   -3.1586    0.0694   -0.7941 C   0  0  0  0  0  0  0  0  0  0  0  0
   -3.1903   -0.9730   -1.7267 C   0  0  0  0  0  0  0  0  0  0  0  0
   -2.0632   -1.7617   -1.9392 C   0  0  0  0  0  0  0  0  0  0  0  0
   -0.9028   -1.5178   -1.2086 C   0  0  0  0  0  0  0  0  0  0  0  0
   -0.8745   -0.4887   -0.2545 C   0  0  0  0  0  0  0  0  0  0  0  0
    0.3874   -0.3053    0.4843 C   0  0  0  0  0  0  0  0  0  0  0  0
    1.5590   -0.2701   -0.1007 N   0  0  0  0  0  0  0  0  0  0  0  0
    2.4652   -0.1323    0.8990 N   0  0  0  0  0  0  0  0  0  0  0  0
    3.8204   -0.0279    0.9455 C   0  0  0  0  0  0  0  0  0  0  0  0
    4.6301   -0.0404   -0.2767 C   0  0  0  0  0  0  0  0  0  0  0  0
    4.3228    0.9895   -1.1088 F   0  0  0  0  0  0  0  0  0  0  0  0
    5.9618    0.0584   -0.0228 F   0  0  0  0  0  0  0  0  0  0  0  0
    4.4629   -1.1848   -0.9918 F   0  0  0  0  0  0  0  0  0  0  0  0
    4.1914    0.0738    2.2199 N   0  0  0  0  0  0  0  0  0  0  0  0
    3.0491    0.0319    3.0149 N   0  0  0  0  0  0  0  0  0  0  0  0
    2.0529   -0.0895    2.1862 C   0  0  0  0  0  0  0  0  0  0  0  0
    0.3558   -0.2260    2.2704 S   0  0  0  0  0  0  0  0  0  0  0  0
   -3.8302    1.5424    1.5140 H   0  0  0  0  0  0  0  0  0  0  0  0
   -3.3431    2.7008    0.2144 H   0  0  0  0  0  0  0  0  0  0  0  0
   -2.7441    2.8920    1.8663 H   0  0  0  0  0  0  0  0  0  0  0  0
   -4.0567    0.6691   -0.6824 H   0  0  0  0  0  0  0  0  0  0  0  0
   -4.0971   -1.1602   -2.2981 H   0  0  0  0  0  0  0  0  0  0  0  0
   -2.0878   -2.5631   -2.6739 H   0  0  0  0  0  0  0  0  0  0  0  0
   -0.0240   -2.1360   -1.3812 H   0  0  0  0  0  0  0  0  0  0  0  0
  1  2  1  0
  2  3  1  0
  3  4  2  0
  4  5  1  0
  5  6  2  0
  6  7  1  0
  7  8  2  0
  8  9  1  0
  9 10  2  0
 10 11  1  0
 11 12  1  0
 12 13  1  0
 13 14  1  0
 13 15  1  0
 13 16  1  0
 12 17  2  0
 17 18  1  0
 18 19  2  0
 19 20  1  0
  8  3  1  0
 20  9  1  0
 19 11  1  0
  1 21  1  0
  1 22  1  0
  1 23  1  0
  4 24  1  0
  5 25  1  0
  6 26  1  0
  7 27  1  0
M  END
