
     RDKit          3D

 33 34  0  0  0  0  0  0  0  0999 V2000
    1.3371   -1.7197    1.0086 C   0  0  0  0  0  0  0  0  0  0  0  0
    1.2292   -1.2686   -0.3425 O   0  0  0  0  0  0  0  0  0  0  0  0
    2.0656   -0.2093   -0.5847 C   0  0  0  0  0  0  0  0  0  0  0  0
    3.4518   -0.3544   -0.4841 C   0  0  0  0  0  0  0  0  0  0  0  0
    4.2868    0.7278   -0.7589 C   0  0  0  0  0  0  0  0  0  0  0  0
    3.7380    1.9489   -1.1445 C   0  0  0  0  0  0  0  0  0  0  0  0
    2.3540    2.0871   -1.2679 C   0  0  0  0  0  0  0  0  0  0  0  0
    1.5013    1.0052   -1.0002 C   0  0  0  0  0  0  0  0  0  0  0  0
    0.0059    1.1639   -1.1484 C   0  0  0  0  0  0  0  0  0  0  0  0
   -0.7280    1.1479    0.1870 C   0  0  0  0  0  0  0  0  0  0  0  0
   -0.4125    1.9224    1.0947 O   0  0  0  0  0  0  0  0  0  0  0  0
   -1.7771    0.2659    0.3380 N   0  0  0  0  0  0  0  0  0  0  0  0
   -2.5499    0.2277    1.5666 C   0  0  0  0  0  0  0  0  0  0  0  0
   -3.7655   -0.6189    1.2219 C   0  0  0  0  0  0  0  0  0  0  0  0
   -3.2149   -1.5937    0.1897 C   0  0  0  0  0  0  0  0  0  0  0  0
   -2.2410   -0.7369   -0.6085 C   0  0  0  0  0  0  0  0  0  0  0  0
    0.4589   -2.3359    1.2241 H   0  0  0  0  0  0  0  0  0  0  0  0
    1.3449   -0.8848    1.7188 H   0  0  0  0  0  0  0  0  0  0  0  0
    2.2263   -2.3445    1.1388 H   0  0  0  0  0  0  0  0  0  0  0  0
    3.8888   -1.3081   -0.2052 H   0  0  0  0  0  0  0  0  0  0  0  0
    5.3646    0.6183   -0.6751 H   0  0  0  0  0  0  0  0  0  0  0  0
    4.3873    2.7954   -1.3530 H   0  0  0  0  0  0  0  0  0  0  0  0
    1.9440    3.0486   -1.5689 H   0  0  0  0  0  0  0  0  0  0  0  0
   -0.2318    2.1248   -1.6224 H   0  0  0  0  0  0  0  0  0  0  0  0
   -0.3575    0.4029   -1.8431 H   0  0  0  0  0  0  0  0  0  0  0  0
   -1.9336   -0.2512    2.3358 H   0  0  0  0  0  0  0  0  0  0  0  0
   -2.8150    1.2359    1.8990 H   0  0  0  0  0  0  0  0  0  0  0  0
   -4.5416    0.0058    0.7636 H   0  0  0  0  0  0  0  0  0  0  0  0
   -4.1951   -1.1163    2.0955 H   0  0  0  0  0  0  0  0  0  0  0  0
   -2.6733   -2.4015    0.6970 H   0  0  0  0  0  0  0  0  0  0  0  0
   -3.9919   -2.0421   -0.4352 H   0  0  0  0  0  0  0  0  0  0  0  0
   -2.7442   -0.2164   -1.4303 H   0  0  0  0  0  0  0  0  0  0  0  0
   -1.4115   -1.3262   -1.0063 H   0  0  0  0  0  0  0  0  0  0  0  0
  1  2  1  0
  2  3  1  0
  3  4  2  0
  4  5  1  0
  5  6  2  0
  6  7  1  0
  7  8  2  0
  8  9  1  0
  9 10  1  0
 10 11  2  0
 10 12  1  0
 12 13  1  0
 13 14  1  0
 14 15  1  0
 15 16  1  0
  8  3  1  0
 16 12  1  0
  1 17  1  0
  1 18  1  0
  1 19  1  0
  4 20  1  0
  5 21  1  0
  6 22  1  0
  7 23  1  0
  9 24  1  0
  9 25  1  0
 13 26  1  0
 13 27  1  0
 14 28  1  0
 14 29  1  0
 15 30  1  0
 15 31  1  0
 16 32  1  0
 16 33  1  0
M  END
