
     RDKit          3D

 44 46  0  0  0  0  0  0  0  0999 V2000
   -2.6326   -0.4155   -2.0628 C   0  0  0  0  0  0  0  0  0  0  0  0
   -2.5527   -0.6047   -0.6559 O   0  0  0  0  0  0  0  0  0  0  0  0
   -3.6148   -0.1733    0.0947 C   0  0  0  0  0  0  0  0  0  0  0  0
   -4.8476    0.2296   -0.4285 C   0  0  0  0  0  0  0  0  0  0  0  0
   -5.8729    0.6523    0.4213 C   0  0  0  0  0  0  0  0  0  0  0  0
   -5.6748    0.6765    1.7983 C   0  0  0  0  0  0  0  0  0  0  0  0
   -4.4525    0.2710    2.3303 C   0  0  0  0  0  0  0  0  0  0  0  0
   -3.4170   -0.1659    1.4880 C   0  0  0  0  0  0  0  0  0  0  0  0
   -2.0930   -0.5883    2.0899 C   0  0  0  0  0  0  0  0  0  0  0  0
   -1.0392    0.5126    2.0090 C   0  0  0  0  0  0  0  0  0  0  0  0
   -1.2735    1.6326    2.4741 O   0  0  0  0  0  0  0  0  0  0  0  0
    0.1855    0.2169    1.4299 N   0  0  0  0  0  0  0  0  0  0  0  0
    0.5818   -1.1063    0.9328 C   0  0  0  0  0  0  0  0  0  0  0  0
    2.0659   -1.1934    0.5294 C   0  0  0  0  0  0  0  0  0  0  0  0
    2.4035   -0.1198   -0.4172 N   0  0  0  0  0  0  0  0  0  0  0  0
    3.6675   -0.2079   -0.9997 C   0  0  0  0  0  0  0  0  0  0  0  0
    4.0497    0.6734   -2.0141 C   0  0  0  0  0  0  0  0  0  0  0  0
    5.3109    0.5664   -2.6002 C   0  0  0  0  0  0  0  0  0  0  0  0
    6.1729   -0.4286   -2.1707 C   0  0  0  0  0  0  0  0  0  0  0  0
    5.7265   -1.2769   -1.1767 C   0  0  0  0  0  0  0  0  0  0  0  0
    4.5073   -1.1882   -0.5978 N   0  0  0  0  0  0  0  0  0  0  0  0
    1.8930    1.2274   -0.0936 C   0  0  0  0  0  0  0  0  0  0  0  0
    1.1787    1.2808    1.2710 C   0  0  0  0  0  0  0  0  0  0  0  0
   -3.4015   -1.0597   -2.5012 H   0  0  0  0  0  0  0  0  0  0  0  0
   -1.6697   -0.7074   -2.4931 H   0  0  0  0  0  0  0  0  0  0  0  0
   -2.8043    0.6362   -2.3151 H   0  0  0  0  0  0  0  0  0  0  0  0
   -5.0452    0.2241   -1.4950 H   0  0  0  0  0  0  0  0  0  0  0  0
   -6.8263    0.9679    0.0055 H   0  0  0  0  0  0  0  0  0  0  0  0
   -6.4685    1.0163    2.4582 H   0  0  0  0  0  0  0  0  0  0  0  0
   -4.3041    0.3092    3.4073 H   0  0  0  0  0  0  0  0  0  0  0  0
   -2.2183   -0.8322    3.1526 H   0  0  0  0  0  0  0  0  0  0  0  0
   -1.7810   -1.5219    1.6175 H   0  0  0  0  0  0  0  0  0  0  0  0
   -0.0468   -1.3261    0.0629 H   0  0  0  0  0  0  0  0  0  0  0  0
    0.3698   -1.8515    1.7066 H   0  0  0  0  0  0  0  0  0  0  0  0
    2.2340   -2.1795    0.0787 H   0  0  0  0  0  0  0  0  0  0  0  0
    2.6937   -1.1160    1.4269 H   0  0  0  0  0  0  0  0  0  0  0  0
    3.3641    1.4339   -2.3715 H   0  0  0  0  0  0  0  0  0  0  0  0
    5.6070    1.2507   -3.3894 H   0  0  0  0  0  0  0  0  0  0  0  0
    7.1598   -0.5461   -2.6022 H   0  0  0  0  0  0  0  0  0  0  0  0
    6.3542   -2.0808   -0.8039 H   0  0  0  0  0  0  0  0  0  0  0  0
    2.6941    1.9768   -0.0753 H   0  0  0  0  0  0  0  0  0  0  0  0
    1.1848    1.5151   -0.8800 H   0  0  0  0  0  0  0  0  0  0  0  0
    1.9086    1.1524    2.0798 H   0  0  0  0  0  0  0  0  0  0  0  0
    0.7232    2.2678    1.4012 H   0  0  0  0  0  0  0  0  0  0  0  0
  1  2  1  0
  2  3  1  0
  3  4  2  0
  4  5  1  0
  5  6  2  0
  6  7  1  0
  7  8  2  0
  8  9  1  0
  9 10  1  0
 10 11  2  0
 10 12  1  0
 12 13  1  0
 13 14  1  0
 14 15  1  0
 15 16  1  0
 16 17  2  0
 17 18  1  0
 18 19  2  0
 19 20  1  0
 20 21  2  0
 15 22  1  0
 22 23  1  0
  8  3  1  0
 23 12  1  0
 21 16  1  0
  1 24  1  0
  1 25  1  0
  1 26  1  0
  4 27  1  0
  5 28  1  0
  6 29  1  0
  7 30  1  0
  9 31  1  0
  9 32  1  0
 13 33  1  0
 13 34  1  0
 14 35  1  0
 14 36  1  0
 17 37  1  0
 18 38  1  0
 19 39  1  0
 20 40  1  0
 22 41  1  0
 22 42  1  0
 23 43  1  0
 23 44  1  0
M  END
