
     RDKit          3D

 44 45  0  0  0  0  0  0  0  0999 V2000
   -4.0868   -2.1742    1.8577 C   0  0  0  0  0  0  0  0  0  0  0  0
   -3.4495   -1.4295    0.8268 O   0  0  0  0  0  0  0  0  0  0  0  0
   -3.1943   -0.1052    1.0772 C   0  0  0  0  0  0  0  0  0  0  0  0
   -3.3767    0.5204    2.3155 C   0  0  0  0  0  0  0  0  0  0  0  0
   -3.0635    1.8726    2.4803 C   0  0  0  0  0  0  0  0  0  0  0  0
   -2.5597    2.6091    1.4132 C   0  0  0  0  0  0  0  0  0  0  0  0
   -2.3739    1.9958    0.1765 C   0  0  0  0  0  0  0  0  0  0  0  0
   -2.6960    0.6403   -0.0079 C   0  0  0  0  0  0  0  0  0  0  0  0
   -2.4630    0.0091   -1.3594 C   0  0  0  0  0  0  0  0  0  0  0  0
   -1.2500   -0.7766   -1.3617 N   0  0  0  0  0  0  0  0  0  0  0  0
   -0.0360   -0.2215   -1.7063 C   0  0  0  0  0  0  0  0  0  0  0  0
    0.1003    0.9017   -2.1685 O   0  0  0  0  0  0  0  0  0  0  0  0
    1.1321   -1.0956   -1.4592 C   0  0  0  0  0  0  0  0  0  0  0  0
    1.1085   -2.3851   -2.0188 C   0  0  0  0  0  0  0  0  0  0  0  0
    2.1787   -3.2575   -1.8238 C   0  0  0  0  0  0  0  0  0  0  0  0
    3.2773   -2.8477   -1.0733 C   0  0  0  0  0  0  0  0  0  0  0  0
    3.3063   -1.5663   -0.5176 C   0  0  0  0  0  0  0  0  0  0  0  0
    2.2350   -0.6794   -0.6967 C   0  0  0  0  0  0  0  0  0  0  0  0
    2.3688    0.6163   -0.0899 N   0  0  0  0  0  0  0  0  0  0  0  0
    1.3622    1.0664    0.8822 C   0  0  0  0  0  0  0  0  0  0  0  0
    3.1713    1.8176   -0.9915 S   0  0  0  0  0  6  0  0  0  0  0  0
    4.5748    2.0787    0.0674 C   0  0  0  0  0  0  0  0  0  0  0  0
    3.6919    1.2635   -2.2240 O   0  0  0  0  0  0  0  0  0  0  0  0
    2.4040    3.0451   -0.9561 O   0  0  0  0  0  0  0  0  0  0  0  0
   -3.4334   -2.2743    2.7305 H   0  0  0  0  0  0  0  0  0  0  0  0
   -4.2805   -3.1795    1.4714 H   0  0  0  0  0  0  0  0  0  0  0  0
   -5.0504   -1.7314    2.1307 H   0  0  0  0  0  0  0  0  0  0  0  0
   -3.7561   -0.0165    3.1784 H   0  0  0  0  0  0  0  0  0  0  0  0
   -3.2091    2.3498    3.4461 H   0  0  0  0  0  0  0  0  0  0  0  0
   -2.3066    3.6585    1.5408 H   0  0  0  0  0  0  0  0  0  0  0  0
   -1.9594    2.5745   -0.6491 H   0  0  0  0  0  0  0  0  0  0  0  0
   -3.2942   -0.6557   -1.6189 H   0  0  0  0  0  0  0  0  0  0  0  0
   -2.4139    0.7738   -2.1433 H   0  0  0  0  0  0  0  0  0  0  0  0
   -1.2671   -1.6234   -0.8093 H   0  0  0  0  0  0  0  0  0  0  0  0
    0.2663   -2.7022   -2.6301 H   0  0  0  0  0  0  0  0  0  0  0  0
    2.1621   -4.2492   -2.2695 H   0  0  0  0  0  0  0  0  0  0  0  0
    4.1195   -3.5203   -0.9290 H   0  0  0  0  0  0  0  0  0  0  0  0
    4.1752   -1.2618    0.0596 H   0  0  0  0  0  0  0  0  0  0  0  0
    0.9339    0.2151    1.4217 H   0  0  0  0  0  0  0  0  0  0  0  0
    1.8295    1.7183    1.6265 H   0  0  0  0  0  0  0  0  0  0  0  0
    0.5517    1.6108    0.3942 H   0  0  0  0  0  0  0  0  0  0  0  0
    5.2005    2.8500   -0.3876 H   0  0  0  0  0  0  0  0  0  0  0  0
    5.1405    1.1490    0.1502 H   0  0  0  0  0  0  0  0  0  0  0  0
    4.2301    2.4163    1.0464 H   0  0  0  0  0  0  0  0  0  0  0  0
  1  2  1  0
  2  3  1  0
  3  4  2  0
  4  5  1  0
  5  6  2  0
  6  7  1  0
  7  8  2  0
  8  9  1  0
  9 10  1  0
 10 11  1  0
 11 12  2  0
 11 13  1  0
 13 14  2  0
 14 15  1  0
 15 16  2  0
 16 17  1  0
 17 18  2  0
 18 19  1  0
 19 20  1  0
 19 21  1  0
 21 22  1  0
 21 23  2  0
 21 24  2  0
  8  3  1  0
 18 13  1  0
  1 25  1  0
  1 26  1  0
  1 27  1  0
  4 28  1  0
  5 29  1  0
  6 30  1  0
  7 31  1  0
  9 32  1  0
  9 33  1  0
 10 34  1  0
 14 35  1  0
 15 36  1  0
 16 37  1  0
 17 38  1  0
 20 39  1  0
 20 40  1  0
 20 41  1  0
 22 42  1  0
 22 43  1  0
 22 44  1  0
M  END
