
     RDKit          3D

 46 48  0  0  0  0  0  0  0  0999 V2000
   -0.1207   -4.5926   -0.0614 C   0  0  0  0  0  0  0  0  0  0  0  0
   -0.4925   -3.2309   -0.2191 O   0  0  0  0  0  0  0  0  0  0  0  0
   -0.9622   -2.5598    0.8804 C   0  0  0  0  0  0  0  0  0  0  0  0
   -1.2214   -3.1660    2.1156 C   0  0  0  0  0  0  0  0  0  0  0  0
   -1.7549   -2.4248    3.1726 C   0  0  0  0  0  0  0  0  0  0  0  0
   -2.0369   -1.0731    3.0073 C   0  0  0  0  0  0  0  0  0  0  0  0
   -1.7832   -0.4557    1.7831 C   0  0  0  0  0  0  0  0  0  0  0  0
   -1.2453   -1.1855    0.7073 C   0  0  0  0  0  0  0  0  0  0  0  0
   -0.9429   -0.5149   -0.5288 N   0  0  0  0  0  0  0  0  0  0  0  0
    0.3220   -0.6386   -1.1078 C   0  0  0  0  0  0  0  0  0  0  0  0
    0.5226   -0.6489   -2.3230 O   0  0  0  0  0  0  0  0  0  0  0  0
    1.3606   -0.8057   -0.2068 N   0  0  0  0  0  0  0  0  0  0  0  0
    2.7373   -0.8146   -0.6415 C   0  0  0  0  0  0  0  0  0  0  0  0
    3.3804    0.5291   -0.4084 C   0  0  0  0  0  0  0  0  0  0  0  0
    3.0797    1.6108   -1.2493 C   0  0  0  0  0  0  0  0  0  0  0  0
    3.6553    2.8624   -1.0278 C   0  0  0  0  0  0  0  0  0  0  0  0
    4.5349    3.0469    0.0371 C   0  0  0  0  0  0  0  0  0  0  0  0
    4.8372    1.9811    0.8830 C   0  0  0  0  0  0  0  0  0  0  0  0
    4.2611    0.7282    0.6642 C   0  0  0  0  0  0  0  0  0  0  0  0
   -1.8067    0.4033   -1.0982 C   0  0  0  0  0  0  0  0  0  0  0  0
   -1.4262    1.4266   -1.7924 N   0  0  0  0  0  0  0  0  0  0  0  0
   -2.5937    2.1352   -2.3475 C   0  0  0  0  0  0  0  0  0  0  0  0
   -3.8194    1.8928   -1.4753 C   0  0  0  0  0  0  0  0  0  0  0  0
   -3.8983    2.8518   -0.2934 C   0  0  0  0  0  0  0  0  0  0  0  0
   -3.5428    0.2045   -0.8938 S   0  0  0  0  0  0  0  0  0  0  0  0
   -0.9908   -5.2123    0.1781 H   0  0  0  0  0  0  0  0  0  0  0  0
    0.2830   -4.9415   -1.0168 H   0  0  0  0  0  0  0  0  0  0  0  0
    0.6657   -4.7040    0.6924 H   0  0  0  0  0  0  0  0  0  0  0  0
   -1.0329   -4.2211    2.2851 H   0  0  0  0  0  0  0  0  0  0  0  0
   -1.9565   -2.9083    4.1258 H   0  0  0  0  0  0  0  0  0  0  0  0
   -2.4508   -0.4975    3.8317 H   0  0  0  0  0  0  0  0  0  0  0  0
   -1.9818    0.6097    1.6905 H   0  0  0  0  0  0  0  0  0  0  0  0
    1.1887   -0.4943    0.7368 H   0  0  0  0  0  0  0  0  0  0  0  0
    2.8220   -1.0967   -1.6966 H   0  0  0  0  0  0  0  0  0  0  0  0
    3.2490   -1.5877   -0.0577 H   0  0  0  0  0  0  0  0  0  0  0  0
    2.3870    1.4799   -2.0806 H   0  0  0  0  0  0  0  0  0  0  0  0
    3.4133    3.6920   -1.6871 H   0  0  0  0  0  0  0  0  0  0  0  0
    4.9831    4.0220    0.2077 H   0  0  0  0  0  0  0  0  0  0  0  0
    5.5223    2.1265    1.7141 H   0  0  0  0  0  0  0  0  0  0  0  0
    4.5059   -0.0915    1.3355 H   0  0  0  0  0  0  0  0  0  0  0  0
   -2.3702    3.2051   -2.4237 H   0  0  0  0  0  0  0  0  0  0  0  0
   -2.7667    1.7733   -3.3693 H   0  0  0  0  0  0  0  0  0  0  0  0
   -4.7400    1.9556   -2.0637 H   0  0  0  0  0  0  0  0  0  0  0  0
   -4.0404    3.8780   -0.6498 H   0  0  0  0  0  0  0  0  0  0  0  0
   -2.9873    2.8413    0.3157 H   0  0  0  0  0  0  0  0  0  0  0  0
   -4.7471    2.6098    0.3557 H   0  0  0  0  0  0  0  0  0  0  0  0
  1  2  1  0
  2  3  1  0
  3  4  2  0
  4  5  1  0
  5  6  2  0
  6  7  1  0
  7  8  2  0
  8  9  1  0
  9 10  1  0
 10 11  2  0
 10 12  1  0
 12 13  1  0
 13 14  1  0
 14 15  2  0
 15 16  1  0
 16 17  2  0
 17 18  1  0
 18 19  2  0
  9 20  1  0
 20 21  2  0
 21 22  1  0
 22 23  1  0
 23 24  1  0
 23 25  1  0
  8  3  1  0
 19 14  1  0
 25 20  1  0
  1 26  1  0
  1 27  1  0
  1 28  1  0
  4 29  1  0
  5 30  1  0
  6 31  1  0
  7 32  1  0
 12 33  1  0
 13 34  1  0
 13 35  1  0
 15 36  1  0
 16 37  1  0
 17 38  1  0
 18 39  1  0
 19 40  1  0
 22 41  1  0
 22 42  1  0
 23 43  1  0
 24 44  1  0
 24 45  1  0
 24 46  1  0
M  END
