
     RDKit          3D

 44 51  0  0  0  0  0  0  0  0999 V2000
    7.8998   -0.0266   -0.0086 Si  0  0  0  0  0  4  0  0  0  0  0  0
    6.8649   -1.5524    0.4540 C   0  0  0  0  0  0  0  0  0  0  0  0
    5.5395   -1.2995    0.3759 C   0  0  0  0  0  0  0  0  0  0  0  0
    5.1846    0.0333   -0.0293 C   0  0  0  0  0  0  0  0  0  0  0  0
    6.2860    0.9020   -0.2922 C   0  0  0  0  0  0  0  0  0  0  0  0
    5.9595    2.1633   -0.6758 C   0  0  0  0  0  0  0  0  0  0  0  0
    4.2497    2.3142   -0.7232 S   0  0  0  0  0  0  0  0  0  0  0  0
    3.9694    0.6610   -0.2212 C   0  0  0  0  0  0  0  0  0  0  0  0
    2.6157    0.1788   -0.0759 C   0  0  0  0  0  0  0  0  0  0  0  0
    2.1064   -1.0508    0.2974 C   0  0  0  0  0  0  0  0  0  0  0  0
    0.6858   -0.9789    0.2742 C   0  0  0  0  0  0  0  0  0  0  0  0
   -0.3477   -1.8800    0.5471 C   0  0  0  0  0  0  0  0  0  0  0  0
   -1.6972   -1.4539    0.4163 C   0  0  0  0  0  0  0  0  0  0  0  0
   -2.7263   -2.4033    0.7039 C   0  0  0  0  0  0  0  0  0  0  0  0
   -2.5392   -3.6808    1.0925 N   0  0  0  0  0  0  0  0  0  0  0  0
   -4.0314   -4.3552    1.2962 S   0  0  0  0  0  0  0  0  0  0  0  0
   -4.9880   -3.0685    0.9041 N   0  0  0  0  0  0  0  0  0  0  0  0
   -4.1733   -2.0396    0.5920 C   0  0  0  0  0  0  0  0  0  0  0  0
   -4.5872   -0.7294    0.1933 C   0  0  0  0  0  0  0  0  0  0  0  0
   -6.0152   -0.5011    0.1226 C   0  0  0  0  0  0  0  0  0  0  0  0
   -6.6000    0.7109   -0.2465 C   0  0  0  0  0  0  0  0  0  0  0  0
   -5.6351    1.6614   -0.5347 C   0  0  0  0  0  0  0  0  0  0  0  0
   -6.0257    2.9217   -0.9184 C   0  0  0  0  0  0  0  0  0  0  0  0
   -4.6782    3.9208   -1.2213 S   0  0  0  0  0  0  0  0  0  0  0  0
   -3.5783    2.6539   -0.8351 C   0  0  0  0  0  0  0  0  0  0  0  0
   -4.1892    1.4723   -0.4760 C   0  0  0  0  0  0  0  0  0  0  0  0
   -3.5246    0.2318   -0.0980 C   0  0  0  0  0  0  0  0  0  0  0  0
   -2.0834   -0.1363    0.0153 C   0  0  0  0  0  0  0  0  0  0  0  0
   -0.9916    0.7310   -0.2472 C   0  0  0  0  0  0  0  0  0  0  0  0
    0.3433    0.3022   -0.1156 C   0  0  0  0  0  0  0  0  0  0  0  0
    1.5207    0.9818   -0.3210 N   0  0  0  0  0  0  0  0  0  0  0  0
    8.6842   -0.2620   -1.2462 H   0  0  0  0  0  0  0  0  0  0  0  0
    8.6820    0.4667    1.1521 H   0  0  0  0  0  0  0  0  0  0  0  0
    7.3371   -2.4797    0.7362 H   0  0  0  0  0  0  0  0  0  0  0  0
    4.8047   -2.0578    0.6056 H   0  0  0  0  0  0  0  0  0  0  0  0
    6.5989    2.9981   -0.9288 H   0  0  0  0  0  0  0  0  0  0  0  0
    2.6718   -1.9298    0.5652 H   0  0  0  0  0  0  0  0  0  0  0  0
   -0.1063   -2.8942    0.8556 H   0  0  0  0  0  0  0  0  0  0  0  0
   -6.6957   -1.3190    0.3707 H   0  0  0  0  0  0  0  0  0  0  0  0
   -7.6712    0.8564   -0.2917 H   0  0  0  0  0  0  0  0  0  0  0  0
   -7.0269    3.3135   -1.0384 H   0  0  0  0  0  0  0  0  0  0  0  0
   -2.5453    2.9274   -0.9176 H   0  0  0  0  0  0  0  0  0  0  0  0
   -1.1351    1.7503   -0.5570 H   0  0  0  0  0  0  0  0  0  0  0  0
    1.5879    1.9460   -0.6141 H   0  0  0  0  0  0  0  0  0  0  0  0
  1  2  1  0
  2  3  2  0
  3  4  1  0
  4  5  1  0
  5  6  2  0
  6  7  1  0
  7  8  1  0
  8  9  1  0
  9 10  2  0
 10 11  1  0
 11 12  2  0
 12 13  1  0
 13 14  1  0
 14 15  2  0
 15 16  1  0
 16 17  1  0
 17 18  2  0
 18 19  1  0
 19 20  1  0
 20 21  2  0
 21 22  1  0
 22 23  2  0
 23 24  1  0
 24 25  1  0
 25 26  2  0
 26 27  1  0
 27 28  1  0
 28 29  1  0
 29 30  2  0
 30 31  1  0
  5  1  1  0
 31  9  1  0
  8  4  2  0
 30 11  1  0
 28 13  2  0
 18 14  1  0
 27 19  2  0
 26 22  1  0
  1 32  1  0
  1 33  1  0
  2 34  1  0
  3 35  1  0
  6 36  1  0
 10 37  1  0
 12 38  1  0
 20 39  1  0
 21 40  1  0
 23 41  1  0
 25 42  1  0
 29 43  1  0
 31 44  1  0
M  END
