
     RDKit          3D

 38 41  0  0  0  0  0  0  0  0999 V2000
   -5.4349   -1.3335   -0.1056 C   0  0  0  0  0  0  0  0  0  0  0  0
   -4.0944   -0.8740   -0.0233 O   0  0  0  0  0  0  0  0  0  0  0  0
   -3.8480    0.0033    0.9871 C   0  0  0  0  0  0  0  0  0  0  0  0
   -4.7322    0.4284    2.0272 C   0  0  0  0  0  0  0  0  0  0  0  0
   -4.1315    1.3192    2.8894 C   0  0  0  0  0  0  0  0  0  0  0  0
   -2.5127    1.6421    2.4526 S   0  0  0  0  0  0  0  0  0  0  0  0
   -2.5983    0.5882    1.1011 C   0  0  0  0  0  0  0  0  0  0  0  0
   -1.4625    0.4140    0.2318 C   0  0  0  0  0  0  0  0  0  0  0  0
   -0.0483   -0.3755    0.7890 S   0  0  0  0  0  0  0  0  0  0  0  0
    0.7390   -0.2021   -0.7190 C   0  0  0  0  0  0  0  0  0  0  0  0
    2.0648   -0.7142   -0.9369 C   0  0  0  0  0  0  0  0  0  0  0  0
    2.4256   -1.6876   -2.3322 S   0  0  0  0  0  0  0  0  0  0  0  0
    4.0723   -1.9186   -1.8719 C   0  0  0  0  0  0  0  0  0  0  0  0
    4.3157   -1.2574   -0.7046 C   0  0  0  0  0  0  0  0  0  0  0  0
    3.1998   -0.5757   -0.1827 C   0  0  0  0  0  0  0  0  0  0  0  0
    3.6135    0.0983    1.0239 C   0  0  0  0  0  0  0  0  0  0  0  0
    2.9476    0.8442    1.7209 O   0  0  0  0  0  0  0  0  0  0  0  0
    4.9458   -0.2551    1.1862 N   0  0  0  0  0  0  0  0  0  0  0  0
    5.7591    0.2479    2.2623 C   0  0  0  0  0  0  0  0  0  0  0  0
    5.4420   -1.0456    0.1650 C   0  0  0  0  0  0  0  0  0  0  0  0
    6.5730   -1.4678   -0.0004 O   0  0  0  0  0  0  0  0  0  0  0  0
   -0.0737    0.4351   -1.6376 C   0  0  0  0  0  0  0  0  0  0  0  0
   -1.3451    0.7950   -1.0922 C   0  0  0  0  0  0  0  0  0  0  0  0
   -2.3728    1.4438   -1.7039 O   0  0  0  0  0  0  0  0  0  0  0  0
   -2.1833    1.7020   -3.0868 C   0  0  0  0  0  0  0  0  0  0  0  0
   -5.7074   -1.9173    0.7800 H   0  0  0  0  0  0  0  0  0  0  0  0
   -6.1317   -0.5021   -0.2575 H   0  0  0  0  0  0  0  0  0  0  0  0
   -5.5103   -1.9938   -0.9750 H   0  0  0  0  0  0  0  0  0  0  0  0
   -5.7570    0.1065    2.1544 H   0  0  0  0  0  0  0  0  0  0  0  0
   -4.5649    1.7967    3.7572 H   0  0  0  0  0  0  0  0  0  0  0  0
    4.7485   -2.5084   -2.4765 H   0  0  0  0  0  0  0  0  0  0  0  0
    6.1072    1.2489    1.9908 H   0  0  0  0  0  0  0  0  0  0  0  0
    6.6240   -0.4007    2.4248 H   0  0  0  0  0  0  0  0  0  0  0  0
    5.1645    0.3189    3.1774 H   0  0  0  0  0  0  0  0  0  0  0  0
    0.2446    0.6361   -2.6521 H   0  0  0  0  0  0  0  0  0  0  0  0
   -3.0880    2.1881   -3.4643 H   0  0  0  0  0  0  0  0  0  0  0  0
   -2.0452    0.7723   -3.6494 H   0  0  0  0  0  0  0  0  0  0  0  0
   -1.3447    2.3874   -3.2492 H   0  0  0  0  0  0  0  0  0  0  0  0
  1  2  1  0
  2  3  1  0
  3  4  1  0
  4  5  2  0
  5  6  1  0
  6  7  1  0
  7  8  1  0
  8  9  1  0
  9 10  1  0
 10 11  1  0
 11 12  1  0
 12 13  1  0
 13 14  2  0
 14 15  1  0
 15 16  1  0
 16 17  2  0
 16 18  1  0
 18 19  1  0
 18 20  1  0
 20 21  2  0
 10 22  2  0
 22 23  1  0
 23 24  1  0
 24 25  1  0
  7  3  2  0
 23  8  2  0
 15 11  2  0
 20 14  1  0
  1 26  1  0
  1 27  1  0
  1 28  1  0
  4 29  1  0
  5 30  1  0
 13 31  1  0
 19 32  1  0
 19 33  1  0
 19 34  1  0
 22 35  1  0
 25 36  1  0
 25 37  1  0
 25 38  1  0
M  END
