
     RDKit          3D

 41 45  0  0  0  0  0  0  0  0999 V2000
    6.5565    0.7751   -0.9382 C   0  0  0  0  0  0  0  0  0  0  0  0
    5.3702    0.2443   -0.3616 O   0  0  0  0  0  0  0  0  0  0  0  0
    4.2363    0.9448   -0.6146 C   0  0  0  0  0  0  0  0  0  0  0  0
    4.1135    2.1206   -1.3425 C   0  0  0  0  0  0  0  0  0  0  0  0
    2.4749    2.6913   -1.4247 S   0  0  0  0  0  0  0  0  0  0  0  0
    1.9684    1.3966   -0.5126 C   0  0  0  0  0  0  0  0  0  0  0  0
    2.9766    0.5300   -0.1335 C   0  0  0  0  0  0  0  0  0  0  0  0
    2.4353   -0.6377    0.7023 C   0  0  0  0  0  0  0  0  0  0  0  0
    3.0173   -0.6422    2.1172 C   0  0  0  0  0  0  0  0  0  0  0  0
    2.6524   -1.9827    0.0059 C   0  0  0  0  0  0  0  0  0  0  0  0
    0.9502   -0.2388    0.7051 C   0  0  0  0  0  0  0  0  0  0  0  0
   -0.2532   -0.7507    1.2424 C   0  0  0  0  0  0  0  0  0  0  0  0
   -1.3357    0.0568    0.9022 C   0  0  0  0  0  0  0  0  0  0  0  0
   -2.7108   -0.1310    1.2783 C   0  0  0  0  0  0  0  0  0  0  0  0
   -3.1445   -0.4737    2.9266 S   0  0  0  0  0  0  0  0  0  0  0  0
   -4.8343   -0.5158    2.5800 C   0  0  0  0  0  0  0  0  0  0  0  0
   -5.0320   -0.2895    1.2501 C   0  0  0  0  0  0  0  0  0  0  0  0
   -3.8481   -0.0817    0.5168 C   0  0  0  0  0  0  0  0  0  0  0  0
   -4.2086    0.1107   -0.8665 C   0  0  0  0  0  0  0  0  0  0  0  0
   -3.4573    0.2564   -1.8153 O   0  0  0  0  0  0  0  0  0  0  0  0
   -5.5952    0.0507   -0.8814 N   0  0  0  0  0  0  0  0  0  0  0  0
   -6.3617    0.1618   -2.0949 C   0  0  0  0  0  0  0  0  0  0  0  0
   -6.1560   -0.2142    0.3552 C   0  0  0  0  0  0  0  0  0  0  0  0
   -7.3275   -0.3703    0.6514 O   0  0  0  0  0  0  0  0  0  0  0  0
   -0.8486    1.4293   -0.0429 S   0  0  0  0  0  0  0  0  0  0  0  0
    0.7346    0.9279   -0.0018 C   0  0  0  0  0  0  0  0  0  0  0  0
    7.3858    0.1168   -0.6616 H   0  0  0  0  0  0  0  0  0  0  0  0
    6.7773    1.7729   -0.5433 H   0  0  0  0  0  0  0  0  0  0  0  0
    6.4932    0.7893   -2.0319 H   0  0  0  0  0  0  0  0  0  0  0  0
    4.8776    2.6981   -1.8411 H   0  0  0  0  0  0  0  0  0  0  0  0
    2.8678    0.3208    2.6203 H   0  0  0  0  0  0  0  0  0  0  0  0
    2.5430   -1.4118    2.7369 H   0  0  0  0  0  0  0  0  0  0  0  0
    4.0951   -0.8396    2.1018 H   0  0  0  0  0  0  0  0  0  0  0  0
    2.2395   -1.9839   -1.0102 H   0  0  0  0  0  0  0  0  0  0  0  0
    2.1670   -2.7961    0.5571 H   0  0  0  0  0  0  0  0  0  0  0  0
    3.7193   -2.2200   -0.0742 H   0  0  0  0  0  0  0  0  0  0  0  0
   -0.3360   -1.6536    1.8351 H   0  0  0  0  0  0  0  0  0  0  0  0
   -5.5636   -0.7065    3.3562 H   0  0  0  0  0  0  0  0  0  0  0  0
   -5.9802    0.9950   -2.6925 H   0  0  0  0  0  0  0  0  0  0  0  0
   -6.2372   -0.7620   -2.6681 H   0  0  0  0  0  0  0  0  0  0  0  0
   -7.4214    0.3126   -1.8738 H   0  0  0  0  0  0  0  0  0  0  0  0
  1  2  1  0
  2  3  1  0
  3  4  2  0
  4  5  1  0
  5  6  1  0
  6  7  2  0
  7  8  1  0
  8  9  1  0
  8 10  1  0
  8 11  1  0
 11 12  1  0
 12 13  2  0
 13 14  1  0
 14 15  1  0
 15 16  1  0
 16 17  2  0
 17 18  1  0
 18 19  1  0
 19 20  2  0
 19 21  1  0
 21 22  1  0
 21 23  1  0
 23 24  2  0
 13 25  1  0
 25 26  1  0
  7  3  1  0
 26 11  2  0
 26  6  1  0
 18 14  2  0
 23 17  1  0
  1 27  1  0
  1 28  1  0
  1 29  1  0
  4 30  1  0
  9 31  1  0
  9 32  1  0
  9 33  1  0
 10 34  1  0
 10 35  1  0
 10 36  1  0
 12 37  1  0
 16 38  1  0
 22 39  1  0
 22 40  1  0
 22 41  1  0
M  END
