
     RDKit          3D

 30 32  0  0  0  0  0  0  0  0999 V2000
   -5.0438    1.0783    0.8805 C   0  0  0  0  0  0  0  0  0  0  0  0
   -3.7297    0.5368    0.8480 O   0  0  0  0  0  0  0  0  0  0  0  0
   -3.2461    0.4050   -0.4854 C   0  0  0  0  0  0  0  0  0  0  0  0
   -1.8000   -0.0110   -0.4137 C   0  0  0  0  0  0  0  0  0  0  0  0
   -1.4096   -1.2298   -0.8362 C   0  0  0  0  0  0  0  0  0  0  0  0
    0.0123   -1.6687   -0.7519 C   0  0  0  0  0  0  0  0  0  0  0  0
    0.3075   -2.7974   -1.1312 O   0  0  0  0  0  0  0  0  0  0  0  0
    0.8621   -0.7204   -0.2324 N   0  0  0  0  0  0  0  0  0  0  0  0
    0.4809    0.5600    0.1857 C   0  0  0  0  0  0  0  0  0  0  0  0
    1.5961    1.2618    0.6370 N   0  0  0  0  0  0  0  0  0  0  0  0
    2.6647    0.3456    0.6253 C   0  0  0  0  0  0  0  0  0  0  0  0
    3.9763    0.5370    0.9952 C   0  0  0  0  0  0  0  0  0  0  0  0
    4.8629   -0.5288    0.8020 C   0  0  0  0  0  0  0  0  0  0  0  0
    4.4298   -1.7447    0.2319 C   0  0  0  0  0  0  0  0  0  0  0  0
    3.1006   -1.9240   -0.1636 C   0  0  0  0  0  0  0  0  0  0  0  0
    2.2406   -0.8654    0.0330 C   0  0  0  0  0  0  0  0  0  0  0  0
   -0.8111    0.9331    0.1222 C   0  0  0  0  0  0  0  0  0  0  0  0
   -1.1957    2.2403    0.5451 C   0  0  0  0  0  0  0  0  0  0  0  0
   -1.4911    3.3133    0.8759 N   0  0  0  0  0  0  0  0  0  0  0  0
   -5.7382    0.4315    0.3356 H   0  0  0  0  0  0  0  0  0  0  0  0
   -5.3658    1.1378    1.9236 H   0  0  0  0  0  0  0  0  0  0  0  0
   -5.0527    2.0860    0.4542 H   0  0  0  0  0  0  0  0  0  0  0  0
   -3.8511   -0.3462   -1.0076 H   0  0  0  0  0  0  0  0  0  0  0  0
   -3.3456    1.3515   -1.0312 H   0  0  0  0  0  0  0  0  0  0  0  0
   -2.0979   -1.9660   -1.2350 H   0  0  0  0  0  0  0  0  0  0  0  0
    1.5051    1.9368    1.3838 H   0  0  0  0  0  0  0  0  0  0  0  0
    4.3178    1.4768    1.4129 H   0  0  0  0  0  0  0  0  0  0  0  0
    5.9070   -0.4172    1.0876 H   0  0  0  0  0  0  0  0  0  0  0  0
    5.1436   -2.5543    0.0927 H   0  0  0  0  0  0  0  0  0  0  0  0
    2.7710   -2.8574   -0.6054 H   0  0  0  0  0  0  0  0  0  0  0  0
  1  2  1  0
  2  3  1  0
  3  4  1  0
  4  5  2  0
  5  6  1  0
  6  7  2  0
  6  8  1  0
  8  9  1  0
  9 10  1  0
 10 11  1  0
 11 12  2  0
 12 13  1  0
 13 14  2  0
 14 15  1  0
 15 16  2  0
  9 17  2  0
 17 18  1  0
 18 19  3  0
 17  4  1  0
 16  8  1  0
 16 11  1  0
  1 20  1  0
  1 21  1  0
  1 22  1  0
  3 23  1  0
  3 24  1  0
  5 25  1  0
 10 26  1  0
 12 27  1  0
 13 28  1  0
 14 29  1  0
 15 30  1  0
M  END
