
     RDKit          3D

 33 34  0  0  0  0  0  0  0  0999 V2000
   -5.5554    0.6849    0.9727 C   0  0  0  0  0  0  0  0  0  0  0  0
   -4.3736    0.8889    1.7373 O   0  0  0  0  0  0  0  0  0  0  0  0
   -3.3442    1.5507    1.0026 C   0  0  0  0  0  0  0  0  0  0  0  0
   -2.5189    0.5719    0.1674 C   0  0  0  0  0  0  0  0  0  0  0  0
   -1.4774    1.3049   -0.4930 O   0  0  0  0  0  0  0  0  0  0  0  0
   -0.7198    0.4690   -1.2728 C   0  0  0  0  0  0  0  0  0  0  0  0
    0.3827   -0.1639   -0.6843 C   0  0  0  0  0  0  0  0  0  0  0  0
    1.2189   -0.9993   -1.4351 C   0  0  0  0  0  0  0  0  0  0  0  0
    2.3608   -1.6335   -0.9039 N   0  0  0  0  0  0  0  0  0  0  0  0
    3.1752   -1.3356    0.1368 C   0  0  0  0  0  0  0  0  0  0  0  0
    4.0673   -2.1999    0.5827 N   0  0  0  0  0  0  0  0  0  0  0  0
    4.8370   -1.7187    1.6189 N   0  0  0  0  0  0  0  0  0  0  0  0
    4.5289   -0.4761    1.9294 C   0  0  0  0  0  0  0  0  0  0  0  0
    5.1695    0.3530    2.9891 C   0  0  0  0  0  0  0  0  0  0  0  0
    5.9878   -0.3654    3.8023 F   0  0  0  0  0  0  0  0  0  0  0  0
    4.2536    0.9492    3.8017 F   0  0  0  0  0  0  0  0  0  0  0  0
    5.9269    1.3550    2.4650 F   0  0  0  0  0  0  0  0  0  0  0  0
    3.2746    0.1801    0.9552 S   0  0  0  0  0  0  0  0  0  0  0  0
    0.9093   -1.1641   -2.8059 C   0  0  0  0  0  0  0  0  0  0  0  0
    1.8894   -2.1832   -3.8096 Cl  0  0  0  0  0  0  0  0  0  0  0  0
   -0.1768   -0.5164   -3.4023 C   0  0  0  0  0  0  0  0  0  0  0  0
   -0.9871    0.3124   -2.6340 C   0  0  0  0  0  0  0  0  0  0  0  0
   -2.3105    1.1170   -3.3915 Cl  0  0  0  0  0  0  0  0  0  0  0  0
   -6.2933    0.1918    1.6124 H   0  0  0  0  0  0  0  0  0  0  0  0
   -5.3587    0.0410    0.1108 H   0  0  0  0  0  0  0  0  0  0  0  0
   -5.9690    1.6426    0.6423 H   0  0  0  0  0  0  0  0  0  0  0  0
   -2.6852    2.0377    1.7309 H   0  0  0  0  0  0  0  0  0  0  0  0
   -3.7563    2.3555    0.3809 H   0  0  0  0  0  0  0  0  0  0  0  0
   -3.1630    0.0720   -0.5666 H   0  0  0  0  0  0  0  0  0  0  0  0
   -2.0950   -0.1991    0.8239 H   0  0  0  0  0  0  0  0  0  0  0  0
    0.5425   -0.0147    0.3788 H   0  0  0  0  0  0  0  0  0  0  0  0
    2.6396   -2.4564   -1.4354 H   0  0  0  0  0  0  0  0  0  0  0  0
   -0.3796   -0.6512   -4.4616 H   0  0  0  0  0  0  0  0  0  0  0  0
  1  2  1  0
  2  3  1  0
  3  4  1  0
  4  5  1  0
  5  6  1  0
  6  7  2  0
  7  8  1  0
  8  9  1  0
  9 10  1  0
 10 11  2  0
 11 12  1  0
 12 13  2  0
 13 14  1  0
 14 15  1  0
 14 16  1  0
 14 17  1  0
 13 18  1  0
  8 19  2  0
 19 20  1  0
 19 21  1  0
 21 22  2  0
 22 23  1  0
 22  6  1  0
 18 10  1  0
  1 24  1  0
  1 25  1  0
  1 26  1  0
  3 27  1  0
  3 28  1  0
  4 29  1  0
  4 30  1  0
  7 31  1  0
  9 32  1  0
 21 33  1  0
M  END
