
     RDKit          3D

 40 45  0  0  0  0  0  0  0  0999 V2000
    0.5429   -0.4796   -0.8818 Si  0  0  0  0  0  4  0  0  0  0  0  0
    1.7207    0.3198    0.3846 C   0  0  0  0  0  0  0  0  0  0  0  0
    0.9846    0.8662    1.3864 C   0  0  0  0  0  0  0  0  0  0  0  0
   -0.4741    0.7198    1.2646 C   0  0  0  0  0  0  0  0  0  0  0  0
   -1.4148    1.1874    2.1500 C   0  0  0  0  0  0  0  0  0  0  0  0
   -2.7386    1.0080    1.9595 N   0  0  0  0  0  0  0  0  0  0  0  0
   -3.1737    0.3377    0.8485 C   0  0  0  0  0  0  0  0  0  0  0  0
   -2.2722   -0.1775   -0.1149 C   0  0  0  0  0  0  0  0  0  0  0  0
   -2.6555   -0.8425   -1.2217 N   0  0  0  0  0  0  0  0  0  0  0  0
   -3.9732   -1.0217   -1.4124 C   0  0  0  0  0  0  0  0  0  0  0  0
   -4.9477   -0.5634   -0.5402 C   0  0  0  0  0  0  0  0  0  0  0  0
   -6.3149   -0.7758   -0.7838 C   0  0  0  0  0  0  0  0  0  0  0  0
   -7.2556   -0.2996    0.1164 C   0  0  0  0  0  0  0  0  0  0  0  0
   -6.7935    0.3719    1.2274 C   0  0  0  0  0  0  0  0  0  0  0  0
   -5.4846    0.5878    1.4819 N   0  0  0  0  0  0  0  0  0  0  0  0
   -4.5422    0.1312    0.6153 C   0  0  0  0  0  0  0  0  0  0  0  0
   -0.9261    0.0332    0.1273 C   0  0  0  0  0  0  0  0  0  0  0  0
    3.1927    0.3513    0.3084 C   0  0  0  0  0  0  0  0  0  0  0  0
    3.9963    0.9794    1.3168 C   0  0  0  0  0  0  0  0  0  0  0  0
    5.4330    1.0616    1.3309 C   0  0  0  0  0  0  0  0  0  0  0  0
    6.2562    0.5225    0.3317 C   0  0  0  0  0  0  0  0  0  0  0  0
    5.4879   -0.0864   -0.6467 C   0  0  0  0  0  0  0  0  0  0  0  0
    6.0150   -0.7023   -1.7514 C   0  0  0  0  0  0  0  0  0  0  0  0
    4.9537   -1.1788   -2.4766 N   0  0  0  0  0  0  0  0  0  0  0  0
    3.7643   -0.8707   -1.8421 C   0  0  0  0  0  0  0  0  0  0  0  0
    4.0481   -0.1819   -0.6835 C   0  0  0  0  0  0  0  0  0  0  0  0
    0.7314   -1.9538   -0.9394 H   0  0  0  0  0  0  0  0  0  0  0  0
    0.6198    0.2064   -2.1992 H   0  0  0  0  0  0  0  0  0  0  0  0
    1.3781    1.3888    2.2475 H   0  0  0  0  0  0  0  0  0  0  0  0
   -1.1442    1.7271    3.0516 H   0  0  0  0  0  0  0  0  0  0  0  0
   -4.2299   -1.5636   -2.3193 H   0  0  0  0  0  0  0  0  0  0  0  0
   -6.6481   -1.3099   -1.6703 H   0  0  0  0  0  0  0  0  0  0  0  0
   -8.3174   -0.4474   -0.0432 H   0  0  0  0  0  0  0  0  0  0  0  0
   -7.4779    0.7702    1.9711 H   0  0  0  0  0  0  0  0  0  0  0  0
    3.5070    1.4500    2.1688 H   0  0  0  0  0  0  0  0  0  0  0  0
    5.9047    1.5740    2.1697 H   0  0  0  0  0  0  0  0  0  0  0  0
    7.3344    0.5855    0.3447 H   0  0  0  0  0  0  0  0  0  0  0  0
    7.0319   -0.8470   -2.0900 H   0  0  0  0  0  0  0  0  0  0  0  0
    5.0266   -1.6836   -3.3504 H   0  0  0  0  0  0  0  0  0  0  0  0
    2.8548   -1.1944   -2.3185 H   0  0  0  0  0  0  0  0  0  0  0  0
  1  2  1  0
  2  3  2  0
  3  4  1  0
  4  5  2  0
  5  6  1  0
  6  7  2  0
  7  8  1  0
  8  9  1  0
  9 10  2  0
 10 11  1  0
 11 12  2  0
 12 13  1  0
 13 14  2  0
 14 15  1  0
 15 16  2  0
  8 17  2  0
  2 18  1  0
 18 19  2  0
 19 20  1  0
 20 21  2  0
 21 22  1  0
 22 23  2  0
 23 24  1  0
 24 25  1  0
 25 26  2  0
 17  1  1  0
 26 18  1  0
 17  4  1  0
 26 22  1  0
 16  7  1  0
 16 11  1  0
  1 27  1  0
  1 28  1  0
  3 29  1  0
  5 30  1  0
 10 31  1  0
 12 32  1  0
 13 33  1  0
 14 34  1  0
 19 35  1  0
 20 36  1  0
 21 37  1  0
 23 38  1  0
 24 39  1  0
 25 40  1  0
M  END
