
     RDKit          3D

 37 42  0  0  0  0  0  0  0  0999 V2000
    6.9778    0.8345    0.9799 Si  0  0  0  0  0  4  0  0  0  0  0  0
    5.5657    0.5383    2.2330 C   0  0  0  0  0  0  0  0  0  0  0  0
    4.3768    0.3760    1.6116 C   0  0  0  0  0  0  0  0  0  0  0  0
    4.4224    0.4541    0.1783 C   0  0  0  0  0  0  0  0  0  0  0  0
    5.7003    0.7007   -0.3969 C   0  0  0  0  0  0  0  0  0  0  0  0
    5.7158    0.7867   -1.7539 C   0  0  0  0  0  0  0  0  0  0  0  0
    4.1178    0.5577   -2.3588 S   0  0  0  0  0  0  0  0  0  0  0  0
    3.4345    0.3470   -0.7755 C   0  0  0  0  0  0  0  0  0  0  0  0
    2.0320    0.0713   -0.5947 C   0  0  0  0  0  0  0  0  0  0  0  0
    1.4813   -0.9324    0.1729 C   0  0  0  0  0  0  0  0  0  0  0  0
    0.0575   -0.9255    0.1571 C   0  0  0  0  0  0  0  0  0  0  0  0
   -0.7229   -1.8079    0.8306 N   0  0  0  0  0  0  0  0  0  0  0  0
   -2.0569   -1.6398    0.6889 C   0  0  0  0  0  0  0  0  0  0  0  0
   -2.7126   -0.6599   -0.0706 C   0  0  0  0  0  0  0  0  0  0  0  0
   -1.8733    0.2352   -0.7514 C   0  0  0  0  0  0  0  0  0  0  0  0
   -2.4655    1.2335   -1.5238 C   0  0  0  0  0  0  0  0  0  0  0  0
   -3.7989    1.3935   -1.6574 N   0  0  0  0  0  0  0  0  0  0  0  0
   -4.6092    0.5436   -1.0116 C   0  0  0  0  0  0  0  0  0  0  0  0
   -5.9775    0.7227   -1.1611 C   0  0  0  0  0  0  0  0  0  0  0  0
   -6.9059   -0.1069   -0.5320 C   0  0  0  0  0  0  0  0  0  0  0  0
   -6.4604   -1.1457    0.2697 C   0  0  0  0  0  0  0  0  0  0  0  0
   -5.0900   -1.3471    0.4363 C   0  0  0  0  0  0  0  0  0  0  0  0
   -4.1338   -0.5113   -0.1972 C   0  0  0  0  0  0  0  0  0  0  0  0
   -0.4622    0.0977   -0.6337 C   0  0  0  0  0  0  0  0  0  0  0  0
    0.8156    1.0215   -1.3310 S   0  0  0  0  0  0  0  0  0  0  0  0
    7.5552    2.1921    1.1391 H   0  0  0  0  0  0  0  0  0  0  0  0
    7.9554   -0.2815    1.0068 H   0  0  0  0  0  0  0  0  0  0  0  0
    5.7609    0.5228    3.2933 H   0  0  0  0  0  0  0  0  0  0  0  0
    3.4523    0.2092    2.1525 H   0  0  0  0  0  0  0  0  0  0  0  0
    6.5413    0.9667   -2.4293 H   0  0  0  0  0  0  0  0  0  0  0  0
    2.0654   -1.6575    0.7249 H   0  0  0  0  0  0  0  0  0  0  0  0
   -2.6233   -2.3782    1.2513 H   0  0  0  0  0  0  0  0  0  0  0  0
   -1.8771    1.9600   -2.0779 H   0  0  0  0  0  0  0  0  0  0  0  0
   -6.3329    1.5368   -1.7897 H   0  0  0  0  0  0  0  0  0  0  0  0
   -7.9700    0.0636   -0.6724 H   0  0  0  0  0  0  0  0  0  0  0  0
   -7.1741   -1.7992    0.7651 H   0  0  0  0  0  0  0  0  0  0  0  0
   -4.7814   -2.1723    1.0724 H   0  0  0  0  0  0  0  0  0  0  0  0
  1  2  1  0
  2  3  2  0
  3  4  1  0
  4  5  1  0
  5  6  2  0
  6  7  1  0
  7  8  1  0
  8  9  1  0
  9 10  2  0
 10 11  1  0
 11 12  2  0
 12 13  1  0
 13 14  2  0
 14 15  1  0
 15 16  1  0
 16 17  2  0
 17 18  1  0
 18 19  2  0
 19 20  1  0
 20 21  2  0
 21 22  1  0
 22 23  2  0
 15 24  2  0
 24 25  1  0
  5  1  1  0
 25  9  1  0
  8  4  2  0
 24 11  1  0
 23 14  1  0
 23 18  1  0
  1 26  1  0
  1 27  1  0
  2 28  1  0
  3 29  1  0
  6 30  1  0
 10 31  1  0
 13 32  1  0
 16 33  1  0
 19 34  1  0
 20 35  1  0
 21 36  1  0
 22 37  1  0
M  END
