
     RDKit          3D

 29 30  0  0  0  0  0  0  0  0999 V2000
    4.3592    0.3035    0.4003 C   0  0  0  0  0  0  0  0  0  0  0  0
    3.3652   -1.1610    0.3033 S   0  0  0  0  0  6  0  0  0  0  0  0
    3.7724   -1.8652   -0.9023 O   0  0  0  0  0  0  0  0  0  0  0  0
    3.4319   -1.8007    1.6077 O   0  0  0  0  0  0  0  0  0  0  0  0
    1.7039   -0.5489    0.0626 C   0  0  0  0  0  0  0  0  0  0  0  0
    0.7462   -1.4825   -0.0555 N   0  0  0  0  0  0  0  0  0  0  0  0
   -0.4956   -1.0032   -0.2299 C   0  0  0  0  0  0  0  0  0  0  0  0
   -0.7922    0.3574   -0.2878 C   0  0  0  0  0  0  0  0  0  0  0  0
    0.2831    1.2401   -0.1782 C   0  0  0  0  0  0  0  0  0  0  0  0
    0.0657    2.7459   -0.2643 C   0  0  0  0  0  0  0  0  0  0  0  0
   -0.6957    3.2246    0.7609 F   0  0  0  0  0  0  0  0  0  0  0  0
   -0.5725    3.1206   -1.4103 F   0  0  0  0  0  0  0  0  0  0  0  0
    1.2217    3.4686   -0.2344 F   0  0  0  0  0  0  0  0  0  0  0  0
    1.5550    0.7891    0.0110 N   0  0  0  0  0  0  0  0  0  0  0  0
   -2.2223    0.7541   -0.5285 C   0  0  0  0  0  0  0  0  0  0  0  0
   -3.1946   -0.0897    0.3039 C   0  0  0  0  0  0  0  0  0  0  0  0
   -2.8305   -1.5769    0.4222 C   0  0  0  0  0  0  0  0  0  0  0  0
   -1.6185   -1.9921   -0.4076 C   0  0  0  0  0  0  0  0  0  0  0  0
    4.0332    0.9068    1.2498 H   0  0  0  0  0  0  0  0  0  0  0  0
    5.3971   -0.0040    0.5485 H   0  0  0  0  0  0  0  0  0  0  0  0
    4.2744    0.8611   -0.5344 H   0  0  0  0  0  0  0  0  0  0  0  0
   -2.4009    1.8080   -0.2955 H   0  0  0  0  0  0  0  0  0  0  0  0
   -2.4387    0.6241   -1.5964 H   0  0  0  0  0  0  0  0  0  0  0  0
   -4.2049    0.0139   -0.1102 H   0  0  0  0  0  0  0  0  0  0  0  0
   -3.2458    0.3281    1.3184 H   0  0  0  0  0  0  0  0  0  0  0  0
   -2.6259   -1.7949    1.4791 H   0  0  0  0  0  0  0  0  0  0  0  0
   -3.6939   -2.1955    0.1503 H   0  0  0  0  0  0  0  0  0  0  0  0
   -1.2939   -2.9962   -0.1117 H   0  0  0  0  0  0  0  0  0  0  0  0
   -1.8831   -2.0349   -1.4710 H   0  0  0  0  0  0  0  0  0  0  0  0
  1  2  1  0
  2  3  2  0
  2  4  2  0
  2  5  1  0
  5  6  2  0
  6  7  1  0
  7  8  2  0
  8  9  1  0
  9 10  1  0
 10 11  1  0
 10 12  1  0
 10 13  1  0
  9 14  2  0
  8 15  1  0
 15 16  1  0
 16 17  1  0
 17 18  1  0
 14  5  1  0
 18  7  1  0
  1 19  1  0
  1 20  1  0
  1 21  1  0
 15 22  1  0
 15 23  1  0
 16 24  1  0
 16 25  1  0
 17 26  1  0
 17 27  1  0
 18 28  1  0
 18 29  1  0
M  END
