
     RDKit          3D

 30 30  0  0  0  0  0  0  0  0999 V2000
    4.2347    0.0370   -1.2837 C   0  0  0  0  0  0  0  0  0  0  0  0
    3.8813    1.3117   -0.0905 S   0  0  0  0  0  6  0  0  0  0  0  0
    3.3742    2.4691   -0.7905 O   0  0  0  0  0  0  0  0  0  0  0  0
    5.0049    1.3957    0.8154 O   0  0  0  0  0  0  0  0  0  0  0  0
    2.6290    0.6410    0.7935 N   0  0  0  0  0  0  0  0  0  0  0  0
    1.3555    0.3335    0.1300 C   0  0  0  0  0  0  0  0  0  0  0  0
    0.2225    0.3809    1.1605 C   0  0  0  0  0  0  0  0  0  0  0  0
   -1.1270    0.0464    0.5647 C   0  0  0  0  0  0  0  0  0  0  0  0
   -2.0826    0.9827    0.4158 C   0  0  0  0  0  0  0  0  0  0  0  0
   -3.4340    0.7133   -0.1808 C   0  0  0  0  0  0  0  0  0  0  0  0
   -3.5236   -0.6411   -0.8837 C   0  0  0  0  0  0  0  0  0  0  0  0
   -2.8382   -1.7291   -0.0654 C   0  0  0  0  0  0  0  0  0  0  0  0
   -1.3633   -1.3946    0.1735 C   0  0  0  0  0  0  0  0  0  0  0  0
    4.4708   -0.8878   -0.7543 H   0  0  0  0  0  0  0  0  0  0  0  0
    5.0985    0.3585   -1.8700 H   0  0  0  0  0  0  0  0  0  0  0  0
    3.3724   -0.0919   -1.9397 H   0  0  0  0  0  0  0  0  0  0  0  0
    2.9369    0.0257    1.5461 H   0  0  0  0  0  0  0  0  0  0  0  0
    1.1512    1.0517   -0.6712 H   0  0  0  0  0  0  0  0  0  0  0  0
    1.4287   -0.6658   -0.3119 H   0  0  0  0  0  0  0  0  0  0  0  0
    0.2009    1.3784    1.6194 H   0  0  0  0  0  0  0  0  0  0  0  0
    0.4326   -0.3152    1.9828 H   0  0  0  0  0  0  0  0  0  0  0  0
   -1.8975    2.0076    0.7322 H   0  0  0  0  0  0  0  0  0  0  0  0
   -3.6795    1.5047   -0.8980 H   0  0  0  0  0  0  0  0  0  0  0  0
   -4.1802    0.7640    0.6211 H   0  0  0  0  0  0  0  0  0  0  0  0
   -3.0488   -0.5754   -1.8710 H   0  0  0  0  0  0  0  0  0  0  0  0
   -4.5746   -0.9007   -1.0530 H   0  0  0  0  0  0  0  0  0  0  0  0
   -2.9183   -2.6937   -0.5792 H   0  0  0  0  0  0  0  0  0  0  0  0
   -3.3515   -1.8381    0.8986 H   0  0  0  0  0  0  0  0  0  0  0  0
   -0.7949   -1.6068   -0.7402 H   0  0  0  0  0  0  0  0  0  0  0  0
   -0.9800   -2.0615    0.9548 H   0  0  0  0  0  0  0  0  0  0  0  0
  1  2  1  0
  2  3  2  0
  2  4  2  0
  2  5  1  0
  5  6  1  0
  6  7  1  0
  7  8  1  0
  8  9  2  0
  9 10  1  0
 10 11  1  0
 11 12  1  0
 12 13  1  0
 13  8  1  0
  1 14  1  0
  1 15  1  0
  1 16  1  0
  5 17  1  0
  6 18  1  0
  6 19  1  0
  7 20  1  0
  7 21  1  0
  9 22  1  0
 10 23  1  0
 10 24  1  0
 11 25  1  0
 11 26  1  0
 12 27  1  0
 12 28  1  0
 13 29  1  0
 13 30  1  0
M  END
