
     RDKit          3D

 31 32  0  0  0  0  0  0  0  0999 V2000
   -4.4306   -0.3867    1.4957 C   0  0  0  0  0  0  0  0  0  0  0  0
   -3.5211   -1.7944    0.8012 S   0  0  0  0  0  0  0  0  0  0  0  0
   -2.3653   -0.9779   -0.2902 C   0  0  0  0  0  0  0  0  0  0  0  0
   -2.0313   -1.6230   -1.4873 C   0  0  0  0  0  0  0  0  0  0  0  0
   -1.1217   -1.0483   -2.3769 C   0  0  0  0  0  0  0  0  0  0  0  0
   -0.5271    0.1739   -2.0704 C   0  0  0  0  0  0  0  0  0  0  0  0
   -0.8380    0.8145   -0.8712 C   0  0  0  0  0  0  0  0  0  0  0  0
   -0.1891    2.0441   -0.5649 N   0  0  0  0  0  0  0  0  0  0  0  0
    0.8175    2.1457    0.7889 S   0  0  0  0  0  6  0  0  0  0  0  0
    0.0485    1.8702    1.9835 O   0  0  0  0  0  0  0  0  0  0  0  0
    1.5542    3.3842    0.6432 O   0  0  0  0  0  0  0  0  0  0  0  0
    1.9629    0.8083    0.5400 C   0  0  0  0  0  0  0  0  0  0  0  0
    1.7354   -0.4256    1.1569 C   0  0  0  0  0  0  0  0  0  0  0  0
    2.6426   -1.4667    0.9626 C   0  0  0  0  0  0  0  0  0  0  0  0
    3.7745   -1.2687    0.1698 C   0  0  0  0  0  0  0  0  0  0  0  0
    4.0078   -0.0287   -0.4278 C   0  0  0  0  0  0  0  0  0  0  0  0
    3.1042    1.0174   -0.2410 C   0  0  0  0  0  0  0  0  0  0  0  0
   -1.7548    0.2428    0.0143 C   0  0  0  0  0  0  0  0  0  0  0  0
   -4.7829    0.2780    0.7021 H   0  0  0  0  0  0  0  0  0  0  0  0
   -5.3002   -0.7634    2.0412 H   0  0  0  0  0  0  0  0  0  0  0  0
   -3.8066    0.1720    2.1978 H   0  0  0  0  0  0  0  0  0  0  0  0
   -2.4819   -2.5815   -1.7386 H   0  0  0  0  0  0  0  0  0  0  0  0
   -0.8748   -1.5589   -3.3044 H   0  0  0  0  0  0  0  0  0  0  0  0
    0.1873    0.6051   -2.7658 H   0  0  0  0  0  0  0  0  0  0  0  0
    0.1634    2.6045   -1.3389 H   0  0  0  0  0  0  0  0  0  0  0  0
    0.8590   -0.5847    1.7815 H   0  0  0  0  0  0  0  0  0  0  0  0
    2.4700   -2.4319    1.4331 H   0  0  0  0  0  0  0  0  0  0  0  0
    4.4821   -2.0820    0.0249 H   0  0  0  0  0  0  0  0  0  0  0  0
    4.8988    0.1225   -1.0325 H   0  0  0  0  0  0  0  0  0  0  0  0
    3.2988    1.9851   -0.6973 H   0  0  0  0  0  0  0  0  0  0  0  0
   -1.9817    0.7543    0.9445 H   0  0  0  0  0  0  0  0  0  0  0  0
  1  2  1  0
  2  3  1  0
  3  4  2  0
  4  5  1  0
  5  6  2  0
  6  7  1  0
  7  8  1  0
  8  9  1  0
  9 10  2  0
  9 11  2  0
  9 12  1  0
 12 13  2  0
 13 14  1  0
 14 15  2  0
 15 16  1  0
 16 17  2  0
  7 18  2  0
 18  3  1  0
 17 12  1  0
  1 19  1  0
  1 20  1  0
  1 21  1  0
  4 22  1  0
  5 23  1  0
  6 24  1  0
  8 25  1  0
 13 26  1  0
 14 27  1  0
 15 28  1  0
 16 29  1  0
 17 30  1  0
 18 31  1  0
M  END
