
     RDKit          3D

 29 30  0  0  0  0  0  0  0  0999 V2000
   -2.9519    2.3198    1.0673 C   0  0  0  0  0  0  0  0  0  0  0  0
   -1.6800    1.2973    1.8591 S   0  0  0  0  0  0  0  0  0  0  0  0
   -2.0261   -0.2805    1.0621 C   0  0  0  0  0  0  0  0  0  0  0  0
   -3.2861   -0.8723    1.2282 C   0  0  0  0  0  0  0  0  0  0  0  0
   -3.5786   -2.0893    0.6149 C   0  0  0  0  0  0  0  0  0  0  0  0
   -2.6130   -2.7231   -0.1615 C   0  0  0  0  0  0  0  0  0  0  0  0
   -1.3477   -2.1504   -0.3202 C   0  0  0  0  0  0  0  0  0  0  0  0
   -1.0356   -0.9346    0.2943 C   0  0  0  0  0  0  0  0  0  0  0  0
    0.2313   -0.3127    0.1815 N   0  0  0  0  0  0  0  0  0  0  0  0
    1.3560   -0.7775   -0.4679 C   0  0  0  0  0  0  0  0  0  0  0  0
    1.4792   -1.8506   -1.0460 O   0  0  0  0  0  0  0  0  0  0  0  0
    2.5365    0.1297   -0.4158 C   0  0  0  0  0  0  0  0  0  0  0  0
    2.4046    1.5192   -0.4007 C   0  0  0  0  0  0  0  0  0  0  0  0
    3.5616    2.2770   -0.3593 C   0  0  0  0  0  0  0  0  0  0  0  0
    4.8040    1.7499   -0.3369 N   0  0  0  0  0  0  0  0  0  0  0  0
    4.9018    0.4035   -0.3727 C   0  0  0  0  0  0  0  0  0  0  0  0
    3.8095   -0.4418   -0.4162 C   0  0  0  0  0  0  0  0  0  0  0  0
   -2.8703    2.2577   -0.0214 H   0  0  0  0  0  0  0  0  0  0  0  0
   -3.9529    2.0088    1.3769 H   0  0  0  0  0  0  0  0  0  0  0  0
   -2.8080    3.3614    1.3670 H   0  0  0  0  0  0  0  0  0  0  0  0
   -4.0467   -0.3986    1.8433 H   0  0  0  0  0  0  0  0  0  0  0  0
   -4.5567   -2.5454    0.7455 H   0  0  0  0  0  0  0  0  0  0  0  0
   -2.8368   -3.6727   -0.6422 H   0  0  0  0  0  0  0  0  0  0  0  0
   -0.6244   -2.6835   -0.9293 H   0  0  0  0  0  0  0  0  0  0  0  0
    0.3075    0.5398    0.7266 H   0  0  0  0  0  0  0  0  0  0  0  0
    1.4418    2.0134   -0.4485 H   0  0  0  0  0  0  0  0  0  0  0  0
    3.5215    3.3629   -0.3497 H   0  0  0  0  0  0  0  0  0  0  0  0
    5.9147    0.0107   -0.3667 H   0  0  0  0  0  0  0  0  0  0  0  0
    3.9450   -1.5181   -0.4482 H   0  0  0  0  0  0  0  0  0  0  0  0
  1  2  1  0
  2  3  1  0
  3  4  2  0
  4  5  1  0
  5  6  2  0
  6  7  1  0
  7  8  2  0
  8  9  1  0
  9 10  1  0
 10 11  2  0
 10 12  1  0
 12 13  2  0
 13 14  1  0
 14 15  2  0
 15 16  1  0
 16 17  2  0
  8  3  1  0
 17 12  1  0
  1 18  1  0
  1 19  1  0
  1 20  1  0
  4 21  1  0
  5 22  1  0
  6 23  1  0
  7 24  1  0
  9 25  1  0
 13 26  1  0
 14 27  1  0
 16 28  1  0
 17 29  1  0
M  END
