
     RDKit          3D

 39 44  0  0  0  0  0  0  0  0999 V2000
    5.6958    0.5424    1.2490 Si  0  0  0  0  0  4  0  0  0  0  0  0
    4.3581    1.8946    1.0330 C   0  0  0  0  0  0  0  0  0  0  0  0
    3.1763    1.3623    0.6505 C   0  0  0  0  0  0  0  0  0  0  0  0
    3.1781   -0.0628    0.4945 C   0  0  0  0  0  0  0  0  0  0  0  0
    4.4028   -0.7334    0.7564 C   0  0  0  0  0  0  0  0  0  0  0  0
    4.3646   -2.0841    0.5952 C   0  0  0  0  0  0  0  0  0  0  0  0
    2.7779   -2.5597    0.1052 S   0  0  0  0  0  0  0  0  0  0  0  0
    2.1803   -0.9330    0.1269 C   0  0  0  0  0  0  0  0  0  0  0  0
    0.7806   -0.6746   -0.2289 C   0  0  0  0  0  0  0  0  0  0  0  0
    0.4791   -0.5553   -1.5912 C   0  0  0  0  0  0  0  0  0  0  0  0
   -0.7870   -0.2698   -2.0463 C   0  0  0  0  0  0  0  0  0  0  0  0
   -0.9193   -0.1826   -3.3768 N   0  0  0  0  0  0  0  0  0  0  0  0
   -2.1128    0.1253   -3.9211 C   0  0  0  0  0  0  0  0  0  0  0  0
   -3.2058    0.4143   -3.1096 C   0  0  0  0  0  0  0  0  0  0  0  0
   -4.5430    0.8076   -3.3912 C   0  0  0  0  0  0  0  0  0  0  0  0
   -5.1705    1.0172   -2.1905 C   0  0  0  0  0  0  0  0  0  0  0  0
   -4.2609    0.7644   -1.1994 N   0  0  0  0  0  0  0  0  0  0  0  0
   -3.0559    0.3297   -1.7195 C   0  0  0  0  0  0  0  0  0  0  0  0
   -1.8255   -0.0819   -1.0984 C   0  0  0  0  0  0  0  0  0  0  0  0
   -1.5709   -0.2822    0.3192 C   0  0  0  0  0  0  0  0  0  0  0  0
   -2.5666   -0.2692    1.3323 C   0  0  0  0  0  0  0  0  0  0  0  0
   -2.2759   -0.4253    2.6903 C   0  0  0  0  0  0  0  0  0  0  0  0
   -0.9700   -0.6217    3.0915 C   0  0  0  0  0  0  0  0  0  0  0  0
    0.0311   -0.6917    2.1285 C   0  0  0  0  0  0  0  0  0  0  0  0
   -0.2393   -0.5461    0.7438 C   0  0  0  0  0  0  0  0  0  0  0  0
    6.7897    0.7124    0.2607 H   0  0  0  0  0  0  0  0  0  0  0  0
    6.1282    0.4473    2.6657 H   0  0  0  0  0  0  0  0  0  0  0  0
    4.5867    2.9334    1.2080 H   0  0  0  0  0  0  0  0  0  0  0  0
    2.2878    1.9574    0.4708 H   0  0  0  0  0  0  0  0  0  0  0  0
    5.1447   -2.8219    0.7247 H   0  0  0  0  0  0  0  0  0  0  0  0
    1.2742   -0.6777   -2.3261 H   0  0  0  0  0  0  0  0  0  0  0  0
   -2.1533    0.1644   -5.0036 H   0  0  0  0  0  0  0  0  0  0  0  0
   -4.9844    0.9478   -4.3695 H   0  0  0  0  0  0  0  0  0  0  0  0
   -6.1735    1.3471   -1.9541 H   0  0  0  0  0  0  0  0  0  0  0  0
   -4.4477    0.9321   -0.2240 H   0  0  0  0  0  0  0  0  0  0  0  0
   -3.6162   -0.1900    1.0865 H   0  0  0  0  0  0  0  0  0  0  0  0
   -3.0761   -0.4081    3.4257 H   0  0  0  0  0  0  0  0  0  0  0  0
   -0.7269   -0.7476    4.1428 H   0  0  0  0  0  0  0  0  0  0  0  0
    1.0452   -0.8807    2.4777 H   0  0  0  0  0  0  0  0  0  0  0  0
  1  2  1  0
  2  3  2  0
  3  4  1  0
  4  5  1  0
  5  6  2  0
  6  7  1  0
  7  8  1  0
  8  9  1  0
  9 10  2  0
 10 11  1  0
 11 12  2  0
 12 13  1  0
 13 14  2  0
 14 15  1  0
 15 16  2  0
 16 17  1  0
 17 18  1  0
 18 19  2  0
 19 20  1  0
 20 21  2  0
 21 22  1  0
 22 23  2  0
 23 24  1  0
 24 25  2  0
  5  1  1  0
 25  9  1  0
  8  4  2  0
 19 11  1  0
 25 20  1  0
 18 14  1  0
  1 26  1  0
  1 27  1  0
  2 28  1  0
  3 29  1  0
  6 30  1  0
 10 31  1  0
 13 32  1  0
 15 33  1  0
 16 34  1  0
 17 35  1  0
 21 36  1  0
 22 37  1  0
 23 38  1  0
 24 39  1  0
M  END
