
     RDKit          3D

 21 23  0  0  0  0  0  0  0  0999 V2000
   -0.3815   -1.9397    1.6125 F   0  0  0  0  0  0  0  0  0  0  0  0
   -0.1813   -1.3993    0.2421 B   0  0  0  0  0  4  0  0  0  0  0  0
    1.1655   -0.7242    0.1441 N   0  0  0  0  0  4  0  0  0  0  0  0
    2.3820   -1.2452    0.2599 C   0  0  0  0  0  0  0  0  0  0  0  0
    3.3756   -0.2154    0.0915 C   0  0  0  0  0  0  0  0  0  0  0  0
    2.7460    0.9178   -0.1245 C   0  0  0  0  0  0  0  0  0  0  0  0
    1.2852    0.6522   -0.1025 C   0  0  0  0  0  0  0  0  0  0  0  0
    0.2386    1.4414   -0.2638 C   0  0  0  0  0  0  0  0  0  0  0  0
   -0.2812   -2.5381   -0.6718 F   0  0  0  0  0  0  0  0  0  0  0  0
   -1.3240   -0.4236    0.0454 N   0  0  0  0  0  0  0  0  0  0  0  0
   -1.1176    0.8617   -0.1832 C   0  0  0  0  0  0  0  0  0  0  0  0
   -2.3746    1.4594   -0.3136 C   0  0  0  0  0  0  0  0  0  0  0  0
   -3.3539    0.5138   -0.1601 C   0  0  0  0  0  0  0  0  0  0  0  0
   -2.6888   -0.6582    0.0635 C   0  0  0  0  0  0  0  0  0  0  0  0
    2.5738   -2.3080    0.4554 H   0  0  0  0  0  0  0  0  0  0  0  0
    4.4403   -0.3372    0.1325 H   0  0  0  0  0  0  0  0  0  0  0  0
    3.1511    1.9026   -0.2953 H   0  0  0  0  0  0  0  0  0  0  0  0
    0.3698    2.4767   -0.4486 H   0  0  0  0  0  0  0  0  0  0  0  0
   -2.4799    2.5127   -0.5058 H   0  0  0  0  0  0  0  0  0  0  0  0
   -4.4206    0.6800   -0.2091 H   0  0  0  0  0  0  0  0  0  0  0  0
   -3.1243   -1.6295    0.2313 H   0  0  0  0  0  0  0  0  0  0  0  0
  1  2  1  0
  2  3  1  0
  3  4  2  0
  4  5  1  0
  5  6  2  0
  6  7  1  0
  7  8  2  0
  2  9  1  0
  2 10  1  0
 10 11  1  0
 11 12  2  0
 12 13  1  0
 13 14  2  0
  7  3  1  0
 11  8  1  0
 14 10  1  0
  4 15  1  0
  5 16  1  0
  6 17  1  0
  8 18  1  0
 12 19  1  0
 13 20  1  0
 14 21  1  0
M  CHG  2   2  -1   3   1
M  END
