
     RDKit          3D

 26 28  0  0  0  0  0  0  0  0999 V2000
    2.3285    2.1753   -0.8654 F   0  0  0  0  0  0  0  0  0  0  0  0
    1.5055    1.5528    0.2038 B   0  0  0  0  0  4  0  0  0  0  0  0
    1.8567    0.0830    0.2000 N   0  0  0  0  0  4  0  0  0  0  0  0
    3.0240   -0.5202    0.3965 C   0  0  0  0  0  0  0  0  0  0  0  0
    2.8827   -1.9546    0.2992 C   0  0  0  0  0  0  0  0  0  0  0  0
    1.6138   -2.1922    0.0420 C   0  0  0  0  0  0  0  0  0  0  0  0
    0.8926   -0.9061   -0.0348 C   0  0  0  0  0  0  0  0  0  0  0  0
   -0.3905   -0.6120   -0.2687 C   0  0  0  0  0  0  0  0  0  0  0  0
   -1.3040   -1.6587   -0.4966 N   0  0  0  0  0  0  0  0  0  0  0  0
   -2.4497   -1.9320    0.3532 C   0  0  0  0  0  0  0  0  0  0  0  0
    1.9077    2.1523    1.4857 F   0  0  0  0  0  0  0  0  0  0  0  0
    0.0352    1.7870   -0.0693 N   0  0  0  0  0  0  0  0  0  0  0  0
   -0.8095    0.7872   -0.2815 C   0  0  0  0  0  0  0  0  0  0  0  0
   -2.0651    1.3728   -0.4959 C   0  0  0  0  0  0  0  0  0  0  0  0
   -1.9431    2.7362   -0.4057 C   0  0  0  0  0  0  0  0  0  0  0  0
   -0.6287    2.9929   -0.1389 C   0  0  0  0  0  0  0  0  0  0  0  0
    3.9396    0.0278    0.6004 H   0  0  0  0  0  0  0  0  0  0  0  0
    3.6982   -2.6536    0.4229 H   0  0  0  0  0  0  0  0  0  0  0  0
    1.1415   -3.1556   -0.0964 H   0  0  0  0  0  0  0  0  0  0  0  0
   -1.1941   -2.3148   -1.3234 H   0  0  0  0  0  0  0  0  0  0  0  0
   -3.3490   -1.7356   -0.2625 H   0  0  0  0  0  0  0  0  0  0  0  0
   -2.4231   -1.3026    1.2506 H   0  0  0  0  0  0  0  0  0  0  0  0
   -2.4138   -2.9908    0.7044 H   0  0  0  0  0  0  0  0  0  0  0  0
   -2.9570    0.7937   -0.6968 H   0  0  0  0  0  0  0  0  0  0  0  0
   -2.7288    3.4870   -0.5211 H   0  0  0  0  0  0  0  0  0  0  0  0
   -0.1694    3.9809   -0.0018 H   0  0  0  0  0  0  0  0  0  0  0  0
  1  2  1  0
  2  3  1  0
  3  4  2  0
  4  5  1  0
  5  6  2  0
  6  7  1  0
  7  8  2  0
  8  9  1  0
  9 10  1  0
  2 11  1  0
  2 12  1  0
 12 13  1  0
 13 14  2  0
 14 15  1  0
 15 16  2  0
  7  3  1  0
 13  8  1  0
 16 12  1  0
  4 17  1  0
  5 18  1  0
  6 19  1  0
  9 20  1  0
 10 21  1  0
 10 22  1  0
 10 23  1  0
 14 24  1  0
 15 25  1  0
 16 26  1  0
M  CHG  2   2  -1   3   1
M  END
