
     RDKit          3D

 28 30  0  0  0  0  0  0  0  0999 V2000
    3.1319    2.3280    0.0962 F   0  0  0  0  0  0  0  0  0  0  0  0
    1.6887    2.0844    0.1443 B   0  0  0  0  0  4  0  0  0  0  0  0
    1.1371    1.4917   -1.1393 N   0  0  0  0  0  4  0  0  0  0  0  0
    1.4438    1.7392   -2.3561 C   0  0  0  0  0  0  0  0  0  0  0  0
    0.6837    0.9599   -3.3058 C   0  0  0  0  0  0  0  0  0  0  0  0
   -0.1536    0.1837   -2.5321 C   0  0  0  0  0  0  0  0  0  0  0  0
    0.1230    0.5030   -1.1613 C   0  0  0  0  0  0  0  0  0  0  0  0
   -0.3425   -0.0833   -0.0417 C   0  0  0  0  0  0  0  0  0  0  0  0
   -1.3077   -1.0331    0.0186 N   0  0  0  0  0  0  0  0  0  0  0  0
   -1.9616   -1.9672   -0.8801 C   0  0  0  0  0  0  0  0  0  0  0  0
   -2.7688   -2.8242   -0.0993 C   0  0  0  0  0  0  0  0  0  0  0  0
   -3.4339   -3.5451    0.5729 C   0  0  0  0  0  0  0  0  0  0  0  0
    1.0228    3.4165    0.2615 F   0  0  0  0  0  0  0  0  0  0  0  0
    1.2960    1.2319    1.2963 N   0  0  0  0  0  0  0  0  0  0  0  0
    0.3214    0.3316    1.2402 C   0  0  0  0  0  0  0  0  0  0  0  0
    0.1785   -0.3020    2.4988 C   0  0  0  0  0  0  0  0  0  0  0  0
    1.1200    0.2629    3.2998 C   0  0  0  0  0  0  0  0  0  0  0  0
    1.7980    1.1794    2.6182 C   0  0  0  0  0  0  0  0  0  0  0  0
    2.2378    2.4961   -2.6161 H   0  0  0  0  0  0  0  0  0  0  0  0
    0.7175    0.9494   -4.3497 H   0  0  0  0  0  0  0  0  0  0  0  0
   -0.8664   -0.5251   -2.9280 H   0  0  0  0  0  0  0  0  0  0  0  0
   -1.7676   -1.1571    1.0400 H   0  0  0  0  0  0  0  0  0  0  0  0
   -1.0769   -2.6177   -1.2316 H   0  0  0  0  0  0  0  0  0  0  0  0
   -2.5058   -1.5507   -1.7147 H   0  0  0  0  0  0  0  0  0  0  0  0
   -4.1232   -4.2750    1.2829 H   0  0  0  0  0  0  0  0  0  0  0  0
   -0.5255   -1.0565    2.7366 H   0  0  0  0  0  0  0  0  0  0  0  0
    1.2924   -0.0526    4.3453 H   0  0  0  0  0  0  0  0  0  0  0  0
    2.6411    1.8318    2.9041 H   0  0  0  0  0  0  0  0  0  0  0  0
  1  2  1  0
  2  3  1  0
  3  4  2  0
  4  5  1  0
  5  6  2  0
  6  7  1  0
  7  8  2  0
  8  9  1  0
  9 10  1  0
 10 11  1  0
 11 12  3  0
  2 13  1  0
  2 14  1  0
 14 15  1  0
 15 16  2  0
 16 17  1  0
 17 18  2  0
  7  3  1  0
 15  8  1  0
 18 14  1  0
  4 19  1  0
  5 20  1  0
  6 21  1  0
  9 22  1  0
 10 23  1  0
 10 24  1  0
 12 25  1  0
 16 26  1  0
 17 27  1  0
 18 28  1  0
M  CHG  2   2  -1   3   1
M  END
