
     RDKit          3D

 29 31  0  0  0  0  0  0  0  0999 V2000
   -3.0660   -0.2823    1.7335 F   0  0  0  0  0  0  0  0  0  0  0  0
   -2.4164    0.0063    0.4438 B   0  0  0  0  0  4  0  0  0  0  0  0
   -1.6452   -1.2207    0.0224 N   0  0  0  0  0  0  0  0  0  0  0  0
   -0.3192   -1.2534   -0.2286 C   0  0  0  0  0  0  0  0  0  0  0  0
    0.0274   -2.5323   -0.5846 C   0  0  0  0  0  0  0  0  0  0  0  0
   -1.1739   -3.2833   -0.5355 C   0  0  0  0  0  0  0  0  0  0  0  0
   -2.1656   -2.4772   -0.1691 C   0  0  0  0  0  0  0  0  0  0  0  0
   -3.5211    0.2618   -0.4958 F   0  0  0  0  0  0  0  0  0  0  0  0
   -1.5335    1.2370    0.5558 N   0  0  0  0  0  0  0  0  0  0  0  0
   -0.2009    1.2405    0.3119 C   0  0  0  0  0  0  0  0  0  0  0  0
    0.4807   -0.0136   -0.0958 C   0  0  0  0  0  0  0  0  0  0  0  0
    1.7379    0.0113   -0.3143 N   0  0  0  0  0  4  0  0  0  0  0  0
    2.6165    1.1643   -0.2157 C   0  0  0  0  0  0  0  0  0  0  0  0
    2.4490   -1.2155   -0.7065 C   0  0  0  0  0  0  0  0  0  0  0  0
    0.2849    2.5074    0.5063 C   0  0  0  0  0  0  0  0  0  0  0  0
   -0.8091    3.3216    0.8894 C   0  0  0  0  0  0  0  0  0  0  0  0
   -1.8760    2.4922    0.8996 C   0  0  0  0  0  0  0  0  0  0  0  0
    0.9418   -2.9975   -0.8605 H   0  0  0  0  0  0  0  0  0  0  0  0
   -1.2451   -4.3275   -0.7610 H   0  0  0  0  0  0  0  0  0  0  0  0
   -3.2250   -2.7388   -0.0342 H   0  0  0  0  0  0  0  0  0  0  0  0
    3.6845    0.8000   -0.5071 H   0  0  0  0  0  0  0  0  0  0  0  0
    2.4430    1.9199   -0.9854 H   0  0  0  0  0  0  0  0  0  0  0  0
    2.7752    1.5264    0.8073 H   0  0  0  0  0  0  0  0  0  0  0  0
    2.4518   -1.9278    0.1067 H   0  0  0  0  0  0  0  0  0  0  0  0
    3.5574   -0.8746   -0.7846 H   0  0  0  0  0  0  0  0  0  0  0  0
    2.1421   -1.5014   -1.7033 H   0  0  0  0  0  0  0  0  0  0  0  0
    1.2475    2.9655    0.4320 H   0  0  0  0  0  0  0  0  0  0  0  0
   -0.7496    4.3926    1.1182 H   0  0  0  0  0  0  0  0  0  0  0  0
   -2.8934    2.7988    1.1550 H   0  0  0  0  0  0  0  0  0  0  0  0
  1  2  1  0
  2  3  1  0
  3  4  1  0
  4  5  2  0
  5  6  1  0
  6  7  2  0
  2  8  1  0
  2  9  1  0
  9 10  1  0
 10 11  1  0
 11 12  2  3
 12 13  1  0
 12 14  1  0
 10 15  2  0
 15 16  1  0
 16 17  2  0
  7  3  1  0
 11  4  1  0
 17  9  1  0
  5 18  1  0
  6 19  1  0
  7 20  1  0
 13 21  1  0
 13 22  1  0
 13 23  1  0
 14 24  1  0
 14 25  1  0
 14 26  1  0
 15 27  1  0
 16 28  1  0
 17 29  1  0
M  CHG  2   2  -1  12   1
M  END
