
     RDKit          3D

 28 30  0  0  0  0  0  0  0  0999 V2000
   -3.5797    0.4277    0.2489 F   0  0  0  0  0  0  0  0  0  0  0  0
   -2.4418    0.2871   -0.6840 B   0  0  0  0  0  4  0  0  0  0  0  0
   -1.4712    1.4045   -0.3731 N   0  0  0  0  0  0  0  0  0  0  0  0
   -0.1709    1.1834   -0.0174 C   0  0  0  0  0  0  0  0  0  0  0  0
    0.3724    2.4411    0.1789 C   0  0  0  0  0  0  0  0  0  0  0  0
   -0.6069    3.4051   -0.0608 C   0  0  0  0  0  0  0  0  0  0  0  0
   -1.7356    2.7312   -0.4001 C   0  0  0  0  0  0  0  0  0  0  0  0
   -3.0343    0.5184   -2.0058 F   0  0  0  0  0  0  0  0  0  0  0  0
   -1.8552   -1.1006   -0.5703 N   0  0  0  0  0  0  0  0  0  0  0  0
   -0.5814   -1.2701   -0.2201 C   0  0  0  0  0  0  0  0  0  0  0  0
    0.3488   -0.1626    0.0798 C   0  0  0  0  0  0  0  0  0  0  0  0
    1.5380   -0.4324    0.4040 N   0  0  0  0  0  4  0  0  0  0  0  0
    2.5891    0.4762    0.7323 C   0  0  0  0  0  0  0  0  0  0  0  0
    3.8045   -0.3331    1.1000 C   0  0  0  0  0  0  0  0  0  0  0  0
    4.7823   -0.9776    1.3739 C   0  0  0  0  0  0  0  0  0  0  0  0
   -0.3565   -2.6521   -0.2071 C   0  0  0  0  0  0  0  0  0  0  0  0
   -1.5286   -3.2668   -0.5572 C   0  0  0  0  0  0  0  0  0  0  0  0
   -2.4669   -2.2926   -0.7845 C   0  0  0  0  0  0  0  0  0  0  0  0
    1.3839    2.6723    0.4695 H   0  0  0  0  0  0  0  0  0  0  0  0
   -0.4441    4.4830    0.0228 H   0  0  0  0  0  0  0  0  0  0  0  0
   -2.6928    3.1997   -0.6511 H   0  0  0  0  0  0  0  0  0  0  0  0
    1.8153   -1.4833    0.4429 H   0  0  0  0  0  0  0  0  0  0  0  0
    2.9032    1.1178   -0.1116 H   0  0  0  0  0  0  0  0  0  0  0  0
    2.3808    1.0443    1.6562 H   0  0  0  0  0  0  0  0  0  0  0  0
    5.6425   -1.5456    1.6108 H   0  0  0  0  0  0  0  0  0  0  0  0
    0.5968   -3.1149    0.0428 H   0  0  0  0  0  0  0  0  0  0  0  0
   -1.6811   -4.3493   -0.6390 H   0  0  0  0  0  0  0  0  0  0  0  0
   -3.5104   -2.4108   -1.0807 H   0  0  0  0  0  0  0  0  0  0  0  0
  1  2  1  0
  2  3  1  0
  3  4  1  0
  4  5  2  0
  5  6  1  0
  6  7  2  0
  2  8  1  0
  2  9  1  0
  9 10  1  0
 10 11  1  0
 11 12  2  3
 12 13  1  0
 13 14  1  0
 14 15  3  0
 10 16  2  0
 16 17  1  0
 17 18  2  0
  7  3  1  0
 11  4  1  0
 18  9  1  0
  5 19  1  0
  6 20  1  0
  7 21  1  0
 12 22  1  0
 13 23  1  0
 13 24  1  0
 15 25  1  0
 16 26  1  0
 17 27  1  0
 18 28  1  0
M  CHG  2   2  -1  12   1
M  END
