
     RDKit          3D

 23 25  0  0  0  0  0  0  0  0999 V2000
    0.6880   -2.6004    0.9721 F   0  0  0  0  0  0  0  0  0  0  0  0
    0.4165   -1.6249   -0.0851 B   0  0  0  0  0  4  0  0  0  0  0  0
   -1.0093   -1.1432    0.0100 N   0  0  0  0  0  0  0  0  0  0  0  0
   -1.3424    0.1388    0.0830 C   0  0  0  0  0  0  0  0  0  0  0  0
   -2.7297    0.2454    0.1599 C   0  0  0  0  0  0  0  0  0  0  0  0
   -3.2201   -1.0290    0.1300 C   0  0  0  0  0  0  0  0  0  0  0  0
   -2.1668   -1.9038    0.0372 C   0  0  0  0  0  0  0  0  0  0  0  0
    0.5175   -2.3155   -1.3953 F   0  0  0  0  0  0  0  0  0  0  0  0
    1.4358   -0.5105   -0.0900 N   0  0  0  0  0  0  0  0  0  0  0  0
    1.0940    0.7790   -0.0161 C   0  0  0  0  0  0  0  0  0  0  0  0
   -0.3095    1.1640    0.0737 C   0  0  0  0  0  0  0  0  0  0  0  0
   -0.6063    2.4081    0.1432 N   0  0  0  0  0  4  0  0  0  0  0  0
    2.2533    1.5360   -0.0437 C   0  0  0  0  0  0  0  0  0  0  0  0
    3.3396    0.6911   -0.1370 C   0  0  0  0  0  0  0  0  0  0  0  0
    2.8115   -0.5771   -0.1646 C   0  0  0  0  0  0  0  0  0  0  0  0
   -3.2387    1.1833    0.2271 H   0  0  0  0  0  0  0  0  0  0  0  0
   -4.2581   -1.3507    0.1701 H   0  0  0  0  0  0  0  0  0  0  0  0
   -2.1914   -2.9837   -0.0085 H   0  0  0  0  0  0  0  0  0  0  0  0
   -1.6129    2.6676    0.2070 H   0  0  0  0  0  0  0  0  0  0  0  0
    0.0711    3.1820    0.1416 H   0  0  0  0  0  0  0  0  0  0  0  0
    2.3040    2.6113    0.0004 H   0  0  0  0  0  0  0  0  0  0  0  0
    4.3920    0.9358   -0.1813 H   0  0  0  0  0  0  0  0  0  0  0  0
    3.3619   -1.5037   -0.2335 H   0  0  0  0  0  0  0  0  0  0  0  0
  1  2  1  0
  2  3  1  0
  3  4  1  0
  4  5  2  0
  5  6  1  0
  6  7  2  0
  2  8  1  0
  2  9  1  0
  9 10  1  0
 10 11  1  0
 11 12  2  0
 10 13  2  0
 13 14  1  0
 14 15  2  0
  7  3  1  0
 11  4  1  0
 15  9  1  0
  5 16  1  0
  6 17  1  0
  7 18  1  0
 12 19  1  0
 12 20  1  0
 13 21  1  0
 14 22  1  0
 15 23  1  0
M  CHG  2   2  -1  12   1
M  END
