
     RDKit          3D

 35 38  0  0  0  0  0  0  0  0999 V2000
    0.5205    1.3120   -1.9801 F   0  0  0  0  0  0  0  0  0  0  0  0
    0.8761    1.2276   -0.5583 B   0  0  0  0  0  4  0  0  0  0  0  0
    0.1316    2.2433    0.2326 F   0  0  0  0  0  0  0  0  0  0  0  0
    2.3132    1.7270   -0.4984 N   0  0  0  0  0  4  0  0  0  0  0  0
    3.3550    0.9588    0.0137 C   0  0  0  0  0  0  0  0  0  0  0  0
    3.1079   -0.2477    0.4703 C   0  0  0  0  0  0  0  0  0  0  0  0
    1.7827   -0.8483    0.4762 C   0  0  0  0  0  0  0  0  0  0  0  0
    0.7118   -0.1526   -0.0106 N   0  0  0  0  0  0  0  0  0  0  0  0
   -0.3866   -0.9199    0.1078 C   0  0  0  0  0  0  0  0  0  0  0  0
    0.0423   -2.1285    0.6904 C   0  0  0  0  0  0  0  0  0  0  0  0
    1.3710   -2.1026    0.9236 C   0  0  0  0  0  0  0  0  0  0  0  0
    2.1971   -3.1742    1.5220 C   0  0  0  0  0  0  0  0  0  0  0  0
   -1.7693   -0.7325   -0.2207 C   0  0  0  0  0  0  0  0  0  0  0  0
   -2.3572    0.3004   -0.7482 C   0  0  0  0  0  0  0  0  0  0  0  0
   -3.8209    0.3100   -1.0193 C   0  0  0  0  0  0  0  0  0  0  0  0
   -4.4883    1.3015   -1.5444 O   0  0  0  0  0  0  0  0  0  0  0  0
   -5.7565    1.0252   -1.6636 C   0  0  0  0  0  0  0  0  0  0  0  0
   -5.9574   -0.2534   -1.1803 C   0  0  0  0  0  0  0  0  0  0  0  0
   -4.7174   -0.6886   -0.7769 C   0  0  0  0  0  0  0  0  0  0  0  0
    4.6167    1.7381   -0.0753 C   0  0  0  0  0  0  0  0  0  0  0  0
    4.2603    2.8828   -0.6163 C   0  0  0  0  0  0  0  0  0  0  0  0
    2.8330    2.8749   -0.8781 C   0  0  0  0  0  0  0  0  0  0  0  0
    3.9290   -0.8428    0.8694 H   0  0  0  0  0  0  0  0  0  0  0  0
   -0.5772   -2.9980    0.9393 H   0  0  0  0  0  0  0  0  0  0  0  0
    3.0451   -2.7576    2.1067 H   0  0  0  0  0  0  0  0  0  0  0  0
    1.5410   -3.8304    2.1314 H   0  0  0  0  0  0  0  0  0  0  0  0
    2.6225   -3.8528    0.7265 H   0  0  0  0  0  0  0  0  0  0  0  0
   -2.4935   -1.5675   -0.0137 H   0  0  0  0  0  0  0  0  0  0  0  0
   -1.8074    1.1558   -0.9945 H   0  0  0  0  0  0  0  0  0  0  0  0
   -6.4778    1.7167   -2.0766 H   0  0  0  0  0  0  0  0  0  0  0  0
   -6.9197   -0.7412   -1.1576 H   0  0  0  0  0  0  0  0  0  0  0  0
   -4.5043   -1.6532   -0.3457 H   0  0  0  0  0  0  0  0  0  0  0  0
    5.5619    1.3632    0.2556 H   0  0  0  0  0  0  0  0  0  0  0  0
    4.9720    3.6904   -0.8191 H   0  0  0  0  0  0  0  0  0  0  0  0
    2.2429    3.6640   -1.3150 H   0  0  0  0  0  0  0  0  0  0  0  0
  1  2  1  0
  2  3  1  0
  2  4  1  0
  4  5  1  0
  5  6  2  0
  6  7  1  0
  7  8  1  0
  8  9  1  0
  9 10  2  0
 10 11  1  0
 11 12  1  0
  9 13  1  0
 13 14  2  0
 14 15  1  0
 15 16  1  0
 16 17  1  0
 17 18  2  0
 18 19  1  0
  5 20  1  0
 20 21  2  0
 21 22  1  0
  8  2  1  0
 19 15  2  0
  4 22  2  0
 11  7  2  0
  6 23  1  0
 10 24  1  0
 12 25  1  0
 12 26  1  0
 12 27  1  0
 13 28  1  0
 14 29  1  0
 17 30  1  0
 18 31  1  0
 19 32  1  0
 20 33  1  0
 21 34  1  0
 22 35  1  0
M  CHG  2   2  -1   4   1
M  END
