
     RDKit          3D

 28 30  0  0  0  0  0  0  0  0999 V2000
   -0.0456   -1.8998    0.5667 F   0  0  0  0  0  0  0  0  0  0  0  0
   -0.3281   -0.7589   -0.3131 B   0  0  0  0  0  4  0  0  0  0  0  0
    0.1776   -1.1143   -1.6461 F   0  0  0  0  0  0  0  0  0  0  0  0
    0.4472    0.4872    0.2225 C   0  0  0  0  0  0  0  0  0  0  0  0
    1.9036    0.3774    0.3290 C   0  0  0  0  0  0  0  0  0  0  0  0
    2.5549   -0.7783   -0.0278 C   0  0  0  0  0  0  0  0  0  0  0  0
    3.9438   -0.8920    0.0697 C   0  0  0  0  0  0  0  0  0  0  0  0
    4.7082    0.1578    0.5296 C   0  0  0  0  0  0  0  0  0  0  0  0
    6.0566    0.0751    0.6344 F   0  0  0  0  0  0  0  0  0  0  0  0
    4.0548    1.3209    0.8890 C   0  0  0  0  0  0  0  0  0  0  0  0
    2.6772    1.4304    0.7910 C   0  0  0  0  0  0  0  0  0  0  0  0
   -0.1574    1.5827    0.5638 N   0  0  0  0  0  0  0  0  0  0  0  0
   -1.5450    1.7051    0.4695 N   0  0  0  0  0  0  0  0  0  0  0  0
   -2.3690    0.6431   -0.0027 C   0  0  0  0  0  0  0  0  0  0  0  0
   -1.8418   -0.5416   -0.3842 N   0  0  0  0  0  4  0  0  0  0  0  0
   -2.5985   -1.5501   -0.8295 C   0  0  0  0  0  0  0  0  0  0  0  0
   -3.9605   -1.4098   -0.9143 C   0  0  0  0  0  0  0  0  0  0  0  0
   -4.5717   -0.2206   -0.5395 C   0  0  0  0  0  0  0  0  0  0  0  0
   -3.7407    0.7859   -0.0875 C   0  0  0  0  0  0  0  0  0  0  0  0
    2.0167   -1.6250   -0.3904 H   0  0  0  0  0  0  0  0  0  0  0  0
    4.3948   -1.8263   -0.2264 H   0  0  0  0  0  0  0  0  0  0  0  0
    4.6526    2.1590    1.2549 H   0  0  0  0  0  0  0  0  0  0  0  0
    2.1578    2.3274    1.0666 H   0  0  0  0  0  0  0  0  0  0  0  0
   -1.9890    2.6114    0.7574 H   0  0  0  0  0  0  0  0  0  0  0  0
   -2.1576   -2.4827   -1.1273 H   0  0  0  0  0  0  0  0  0  0  0  0
   -4.5968   -2.2100   -1.2713 H   0  0  0  0  0  0  0  0  0  0  0  0
   -5.6452   -0.0781   -0.5947 H   0  0  0  0  0  0  0  0  0  0  0  0
   -4.1987    1.7240    0.2106 H   0  0  0  0  0  0  0  0  0  0  0  0
  1  2  1  0
  2  3  1  0
  2  4  1  0
  4  5  1  0
  5  6  2  0
  6  7  1  0
  7  8  2  0
  8  9  1  0
  8 10  1  0
 10 11  2  0
  4 12  2  0
 12 13  1  0
 13 14  1  0
 14 15  2  0
 15 16  1  0
 16 17  2  0
 17 18  1  0
 18 19  2  0
 15  2  1  0
 11  5  1  0
 19 14  1  0
  6 20  1  0
  7 21  1  0
 10 22  1  0
 11 23  1  0
 13 24  1  0
 16 25  1  0
 17 26  1  0
 18 27  1  0
 19 28  1  0
M  CHG  2   2  -1  15   1
M  END
