
     RDKit          3D

 28 30  0  0  0  0  0  0  0  0999 V2000
   -6.2392   -1.4118   -0.4492 F   0  0  0  0  0  0  0  0  0  0  0  0
   -4.9977   -0.9217   -0.3420 C   0  0  0  0  0  0  0  0  0  0  0  0
   -4.8112    0.4489   -0.2153 C   0  0  0  0  0  0  0  0  0  0  0  0
   -3.5159    0.9652   -0.1030 C   0  0  0  0  0  0  0  0  0  0  0  0
   -3.9142   -1.7886   -0.3588 C   0  0  0  0  0  0  0  0  0  0  0  0
   -2.6196   -1.2740   -0.2467 C   0  0  0  0  0  0  0  0  0  0  0  0
   -2.4013    0.1096   -0.1172 C   0  0  0  0  0  0  0  0  0  0  0  0
   -1.0391    0.6344   -0.0006 C   0  0  0  0  0  0  0  0  0  0  0  0
    0.0438   -0.1601   -0.0114 N   0  0  0  0  0  0  0  0  0  0  0  0
    1.0746    0.7142    0.1176 N   0  0  0  0  0  0  0  0  0  0  0  0
    2.4276    0.2830    0.1521 C   0  0  0  0  0  0  0  0  0  0  0  0
    3.4623    1.2216    0.2867 C   0  0  0  0  0  0  0  0  0  0  0  0
    4.7927    0.7940    0.3203 C   0  0  0  0  0  0  0  0  0  0  0  0
    5.0887   -0.5649    0.2200 C   0  0  0  0  0  0  0  0  0  0  0  0
    6.7274   -1.0871    0.2618 Cl  0  0  0  0  0  0  0  0  0  0  0  0
    4.0666   -1.5038    0.0860 C   0  0  0  0  0  0  0  0  0  0  0  0
    2.7340   -1.0829    0.0517 C   0  0  0  0  0  0  0  0  0  0  0  0
    0.7333    2.0246    0.2114 N   0  0  0  0  0  0  0  0  0  0  0  0
   -0.5968    1.9683    0.1365 C   0  0  0  0  0  0  0  0  0  0  0  0
   -5.6742    1.1075   -0.2046 H   0  0  0  0  0  0  0  0  0  0  0  0
   -3.4026    2.0415   -0.0052 H   0  0  0  0  0  0  0  0  0  0  0  0
   -4.0788   -2.8567   -0.4586 H   0  0  0  0  0  0  0  0  0  0  0  0
   -1.7781   -1.9649   -0.2612 H   0  0  0  0  0  0  0  0  0  0  0  0
    3.2483    2.2861    0.3662 H   0  0  0  0  0  0  0  0  0  0  0  0
    5.5905    1.5249    0.4247 H   0  0  0  0  0  0  0  0  0  0  0  0
    4.2988   -2.5628    0.0079 H   0  0  0  0  0  0  0  0  0  0  0  0
    1.9481   -1.8289   -0.0534 H   0  0  0  0  0  0  0  0  0  0  0  0
   -1.1680    2.8845    0.1845 H   0  0  0  0  0  0  0  0  0  0  0  0
  1  2  1  0
  2  3  2  0
  3  4  1  0
  2  5  1  0
  5  6  2  0
  6  7  1  0
  7  8  1  0
  8  9  2  0
  9 10  1  0
 10 11  1  0
 11 12  2  0
 12 13  1  0
 13 14  2  0
 14 15  1  0
 14 16  1  0
 16 17  2  0
 10 18  1  0
 18 19  2  0
  7  4  2  0
 19  8  1  0
 17 11  1  0
  3 20  1  0
  4 21  1  0
  5 22  1  0
  6 23  1  0
 12 24  1  0
 13 25  1  0
 16 26  1  0
 17 27  1  0
 19 28  1  0
M  END
