
     RDKit          3D

 33 38  0  0  0  0  0  0  0  0999 V2000
    6.3258   -0.3474    0.6090 Si  0  0  0  0  0  4  0  0  0  0  0  0
    5.1578   -1.8551    0.5857 C   0  0  0  0  0  0  0  0  0  0  0  0
    3.8609   -1.4771    0.5480 C   0  0  0  0  0  0  0  0  0  0  0  0
    3.6357   -0.0585    0.5380 C   0  0  0  0  0  0  0  0  0  0  0  0
    4.8026    0.7577    0.5501 C   0  0  0  0  0  0  0  0  0  0  0  0
    4.5738    2.0972    0.5101 C   0  0  0  0  0  0  0  0  0  0  0  0
    2.8763    2.3830    0.4507 S   0  0  0  0  0  0  0  0  0  0  0  0
    2.4795    0.6896    0.5016 C   0  0  0  0  0  0  0  0  0  0  0  0
    1.1038    0.2600    0.5067 C   0  0  0  0  0  0  0  0  0  0  0  0
    0.5315   -0.8596    1.1420 C   0  0  0  0  0  0  0  0  0  0  0  0
   -0.8331   -0.7913    0.8100 C   0  0  0  0  0  0  0  0  0  0  0  0
   -2.0281   -1.4294    0.9909 O   0  0  0  0  0  0  0  0  0  0  0  0
   -2.9236   -0.6644    0.2990 C   0  0  0  0  0  0  0  0  0  0  0  0
   -4.2613   -0.5187   -0.0693 C   0  0  0  0  0  0  0  0  0  0  0  0
   -5.3449   -1.2720    0.2112 N   0  0  0  0  0  0  0  0  0  0  0  0
   -6.4810   -0.7829   -0.3434 C   0  0  0  0  0  0  0  0  0  0  0  0
   -6.5799    0.3692   -1.1282 C   0  0  0  0  0  0  0  0  0  0  0  0
   -5.4394    1.1312   -1.4032 C   0  0  0  0  0  0  0  0  0  0  0  0
   -4.2598    0.6524   -0.8465 C   0  0  0  0  0  0  0  0  0  0  0  0
   -3.0011    1.2185   -0.9672 O   0  0  0  0  0  0  0  0  0  0  0  0
   -2.2730    0.3570   -0.2484 C   0  0  0  0  0  0  0  0  0  0  0  0
   -1.0027    0.2908    0.0549 C   0  0  0  0  0  0  0  0  0  0  0  0
    0.1147    0.9803   -0.1684 N   0  0  0  0  0  0  0  0  0  0  0  0
    7.0782   -0.2717    1.8858 H   0  0  0  0  0  0  0  0  0  0  0  0
    7.1559   -0.2944   -0.6201 H   0  0  0  0  0  0  0  0  0  0  0  0
    5.5480   -2.8601    0.5919 H   0  0  0  0  0  0  0  0  0  0  0  0
    3.0475   -2.1917    0.5110 H   0  0  0  0  0  0  0  0  0  0  0  0
    5.2744    2.9211    0.5064 H   0  0  0  0  0  0  0  0  0  0  0  0
    1.0317   -1.5939    1.7557 H   0  0  0  0  0  0  0  0  0  0  0  0
   -7.3713   -1.3727   -0.1319 H   0  0  0  0  0  0  0  0  0  0  0  0
   -7.5455    0.6709   -1.5238 H   0  0  0  0  0  0  0  0  0  0  0  0
   -5.4664    2.0301   -2.0051 H   0  0  0  0  0  0  0  0  0  0  0  0
    0.2132    1.8320   -0.7068 H   0  0  0  0  0  0  0  0  0  0  0  0
  1  2  1  0
  2  3  2  0
  3  4  1  0
  4  5  1  0
  5  6  2  0
  6  7  1  0
  7  8  1  0
  8  9  1  0
  9 10  2  0
 10 11  1  0
 11 12  1  0
 12 13  1  0
 13 14  1  0
 14 15  2  0
 15 16  1  0
 16 17  2  0
 17 18  1  0
 18 19  2  0
 19 20  1  0
 20 21  1  0
 21 22  1  0
 22 23  1  0
  5  1  1  0
 23  9  1  0
  8  4  2  0
 22 11  2  0
 21 13  2  0
 19 14  1  0
  1 24  1  0
  1 25  1  0
  2 26  1  0
  3 27  1  0
  6 28  1  0
 10 29  1  0
 16 30  1  0
 17 31  1  0
 18 32  1  0
 23 33  1  0
M  END
