
     RDKit          3D

 29 31  0  0  0  0  0  0  0  0999 V2000
   -2.4768   -1.8628   -2.9580 F   0  0  0  0  0  0  0  0  0  0  0  0
   -3.0458   -1.6784   -1.7349 C   0  0  0  0  0  0  0  0  0  0  0  0
   -2.1728   -0.8805   -0.7947 C   0  0  0  0  0  0  0  0  0  0  0  0
   -2.7414   -0.0209    0.1583 C   0  0  0  0  0  0  0  0  0  0  0  0
   -1.9346    0.7078    1.0466 C   0  0  0  0  0  0  0  0  0  0  0  0
   -2.5539    1.6573    2.0459 C   0  0  0  0  0  0  0  0  0  0  0  0
   -1.7967    1.8227    3.1655 F   0  0  0  0  0  0  0  0  0  0  0  0
   -2.7463    2.9008    1.5303 F   0  0  0  0  0  0  0  0  0  0  0  0
   -3.7742    1.2382    2.4829 F   0  0  0  0  0  0  0  0  0  0  0  0
   -0.5393    0.5687    0.9673 C   0  0  0  0  0  0  0  0  0  0  0  0
    0.0520   -0.2931    0.0327 C   0  0  0  0  0  0  0  0  0  0  0  0
    1.5201   -0.4318   -0.0307 C   0  0  0  0  0  0  0  0  0  0  0  0
    2.0791   -1.6467    0.1285 C   0  0  0  0  0  0  0  0  0  0  0  0
    3.5644   -1.6943    0.0625 C   0  0  0  0  0  0  0  0  0  0  0  0
    4.3604   -0.6898   -0.1275 N   0  0  0  0  0  0  0  0  0  0  0  0
    3.7590    0.5268   -0.2796 C   0  0  0  0  0  0  0  0  0  0  0  0
    4.3101    1.7035   -0.4812 N   0  0  0  0  0  0  0  0  0  0  0  0
    3.2464    2.5453   -0.5547 C   0  0  0  0  0  0  0  0  0  0  0  0
    2.0470    1.9851   -0.4095 N   0  0  0  0  0  0  0  0  0  0  0  0
    2.3628    0.6747   -0.2334 N   0  0  0  0  0  0  0  0  0  0  0  0
   -0.7749   -1.0142   -0.8416 C   0  0  0  0  0  0  0  0  0  0  0  0
   -4.2551   -1.0991   -1.9669 F   0  0  0  0  0  0  0  0  0  0  0  0
   -3.3095   -2.9236   -1.2530 F   0  0  0  0  0  0  0  0  0  0  0  0
   -3.8268    0.0877    0.2067 H   0  0  0  0  0  0  0  0  0  0  0  0
    0.0895    1.1487    1.6451 H   0  0  0  0  0  0  0  0  0  0  0  0
    1.5384   -2.5664    0.3072 H   0  0  0  0  0  0  0  0  0  0  0  0
    4.0027   -2.6985    0.1921 H   0  0  0  0  0  0  0  0  0  0  0  0
    3.3496    3.6106   -0.7198 H   0  0  0  0  0  0  0  0  0  0  0  0
   -0.3334   -1.6779   -1.5860 H   0  0  0  0  0  0  0  0  0  0  0  0
  1  2  1  0
  2  3  1  0
  3  4  2  0
  4  5  1  0
  5  6  1  0
  6  7  1  0
  6  8  1  0
  6  9  1  0
  5 10  2  0
 10 11  1  0
 11 12  1  0
 12 13  2  0
 13 14  1  0
 14 15  2  0
 15 16  1  0
 16 17  2  0
 17 18  1  0
 18 19  2  0
 19 20  1  0
 11 21  2  0
  2 22  1  0
  2 23  1  0
 21  3  1  0
 20 12  1  0
 20 16  1  0
  4 24  1  0
 10 25  1  0
 13 26  1  0
 14 27  1  0
 18 28  1  0
 21 29  1  0
M  END
