
     RDKit          3D

 29 31  0  0  0  0  0  0  0  0999 V2000
   -2.1720   -3.8646    0.4116 F   0  0  0  0  0  0  0  0  0  0  0  0
   -2.9948   -2.7971    0.6050 C   0  0  0  0  0  0  0  0  0  0  0  0
   -3.2336   -2.7429    1.9436 F   0  0  0  0  0  0  0  0  0  0  0  0
   -4.1812   -3.1332    0.0261 F   0  0  0  0  0  0  0  0  0  0  0  0
   -2.4224   -1.5047    0.0730 C   0  0  0  0  0  0  0  0  0  0  0  0
   -1.0422   -1.2555    0.1580 C   0  0  0  0  0  0  0  0  0  0  0  0
   -0.4912   -0.0518   -0.3064 C   0  0  0  0  0  0  0  0  0  0  0  0
    0.9453    0.2029   -0.2145 C   0  0  0  0  0  0  0  0  0  0  0  0
    1.8234   -0.6682    0.3021 N   0  0  0  0  0  0  0  0  0  0  0  0
    2.9960   -0.0114    0.1759 N   0  0  0  0  0  0  0  0  0  0  0  0
    4.2707   -0.4246    0.5436 C   0  0  0  0  0  0  0  0  0  0  0  0
    5.3204    0.3811    0.3334 C   0  0  0  0  0  0  0  0  0  0  0  0
    4.9937    1.6910   -0.2997 C   0  0  0  0  0  0  0  0  0  0  0  0
    3.8149    2.1039   -0.6535 N   0  0  0  0  0  0  0  0  0  0  0  0
    2.7838    1.2384   -0.4141 C   0  0  0  0  0  0  0  0  0  0  0  0
    1.5011    1.3762   -0.6598 N   0  0  0  0  0  0  0  0  0  0  0  0
   -1.3455    0.9128   -0.8610 C   0  0  0  0  0  0  0  0  0  0  0  0
   -2.7293    0.6903   -0.9584 C   0  0  0  0  0  0  0  0  0  0  0  0
   -3.6312    1.7562   -1.5347 C   0  0  0  0  0  0  0  0  0  0  0  0
   -3.0657    2.4307   -2.5729 F   0  0  0  0  0  0  0  0  0  0  0  0
   -3.9725    2.6970   -0.6127 F   0  0  0  0  0  0  0  0  0  0  0  0
   -4.8060    1.2577   -2.0123 F   0  0  0  0  0  0  0  0  0  0  0  0
   -3.2573   -0.5188   -0.4774 C   0  0  0  0  0  0  0  0  0  0  0  0
   -0.3901   -2.0134    0.5946 H   0  0  0  0  0  0  0  0  0  0  0  0
    4.3447   -1.4055    0.9933 H   0  0  0  0  0  0  0  0  0  0  0  0
    6.3433    0.1428    0.5867 H   0  0  0  0  0  0  0  0  0  0  0  0
    5.8598    2.3524   -0.4716 H   0  0  0  0  0  0  0  0  0  0  0  0
   -0.9293    1.8548   -1.2231 H   0  0  0  0  0  0  0  0  0  0  0  0
   -4.3330   -0.6963   -0.5351 H   0  0  0  0  0  0  0  0  0  0  0  0
  1  2  1  0
  2  3  1  0
  2  4  1  0
  2  5  1  0
  5  6  2  0
  6  7  1  0
  7  8  1  0
  8  9  2  0
  9 10  1  0
 10 11  1  0
 11 12  2  0
 12 13  1  0
 13 14  2  0
 14 15  1  0
 15 16  2  0
  7 17  2  0
 17 18  1  0
 18 19  1  0
 19 20  1  0
 19 21  1  0
 19 22  1  0
 18 23  2  0
 23  5  1  0
 16  8  1  0
 15 10  1  0
  6 24  1  0
 11 25  1  0
 12 26  1  0
 13 27  1  0
 17 28  1  0
 23 29  1  0
M  END
