
     RDKit          3D

 41 47  0  0  0  0  0  0  0  0999 V2000
    6.7686    0.2868   -0.5795 Si  0  0  0  0  0  4  0  0  0  0  0  0
    5.4727   -0.6858   -1.5975 C   0  0  0  0  0  0  0  0  0  0  0  0
    4.2230   -0.4859   -1.1237 C   0  0  0  0  0  0  0  0  0  0  0  0
    4.1375    0.3867    0.0116 C   0  0  0  0  0  0  0  0  0  0  0  0
    5.3603    0.9315    0.4889 C   0  0  0  0  0  0  0  0  0  0  0  0
    5.2400    1.7627    1.5591 C   0  0  0  0  0  0  0  0  0  0  0  0
    3.5762    1.8904    2.0013 S   0  0  0  0  0  0  0  0  0  0  0  0
    3.0561    0.8150    0.7447 C   0  0  0  0  0  0  0  0  0  0  0  0
    1.6429    0.5128    0.6125 C   0  0  0  0  0  0  0  0  0  0  0  0
    0.6762    1.4534    0.2074 C   0  0  0  0  0  0  0  0  0  0  0  0
   -0.7013    1.1052    0.0728 C   0  0  0  0  0  0  0  0  0  0  0  0
   -1.9867    2.1329   -0.4112 S   0  0  0  0  0  0  0  0  0  0  0  0
   -3.1821    0.8853   -0.2787 C   0  0  0  0  0  0  0  0  0  0  0  0
   -2.6171   -0.3302    0.1356 C   0  0  0  0  0  0  0  0  0  0  0  0
   -3.4845   -1.4224    0.2803 C   0  0  0  0  0  0  0  0  0  0  0  0
   -4.8135   -1.3248    0.0344 N   0  0  0  0  0  0  0  0  0  0  0  0
   -5.3459   -0.1640   -0.3594 C   0  0  0  0  0  0  0  0  0  0  0  0
   -6.7048   -0.0913   -0.6031 C   0  0  0  0  0  0  0  0  0  0  0  0
   -7.2621    1.1087   -1.0117 C   0  0  0  0  0  0  0  0  0  0  0  0
   -6.5533    2.2399   -1.1931 N   0  0  0  0  0  0  0  0  0  0  0  0
   -5.2265    2.1616   -0.9528 C   0  0  0  0  0  0  0  0  0  0  0  0
   -4.5792    0.9906   -0.5371 C   0  0  0  0  0  0  0  0  0  0  0  0
   -1.2150   -0.1585    0.3213 C   0  0  0  0  0  0  0  0  0  0  0  0
   -0.2513   -1.1469    0.7429 C   0  0  0  0  0  0  0  0  0  0  0  0
   -0.3941   -2.4628    1.0762 C   0  0  0  0  0  0  0  0  0  0  0  0
    0.8733   -2.8978    1.4123 N   0  0  0  0  0  0  0  0  0  0  0  0
    1.7799   -1.8651    1.2856 C   0  0  0  0  0  0  0  0  0  0  0  0
    1.0966   -0.7471    0.8566 C   0  0  0  0  0  0  0  0  0  0  0  0
    7.6889   -0.6389    0.1271 H   0  0  0  0  0  0  0  0  0  0  0  0
    7.4263    1.3262   -1.4098 H   0  0  0  0  0  0  0  0  0  0  0  0
    5.7697   -1.2956   -2.4353 H   0  0  0  0  0  0  0  0  0  0  0  0
    3.3427   -0.9435   -1.5612 H   0  0  0  0  0  0  0  0  0  0  0  0
    5.9989    2.3032    2.1080 H   0  0  0  0  0  0  0  0  0  0  0  0
    0.9872    2.4730   -0.0159 H   0  0  0  0  0  0  0  0  0  0  0  0
   -3.1595   -2.4057    0.5932 H   0  0  0  0  0  0  0  0  0  0  0  0
   -7.3280   -0.9692   -0.4744 H   0  0  0  0  0  0  0  0  0  0  0  0
   -8.3273    1.1906   -1.2093 H   0  0  0  0  0  0  0  0  0  0  0  0
   -4.6888    3.0922   -1.1091 H   0  0  0  0  0  0  0  0  0  0  0  0
   -1.2243   -3.1492    1.1272 H   0  0  0  0  0  0  0  0  0  0  0  0
    1.1044   -3.8354    1.7158 H   0  0  0  0  0  0  0  0  0  0  0  0
    2.8239   -2.0289    1.5194 H   0  0  0  0  0  0  0  0  0  0  0  0
  1  2  1  0
  2  3  2  0
  3  4  1  0
  4  5  1  0
  5  6  2  0
  6  7  1  0
  7  8  1  0
  8  9  1  0
  9 10  2  0
 10 11  1  0
 11 12  1  0
 12 13  1  0
 13 14  2  0
 14 15  1  0
 15 16  2  0
 16 17  1  0
 17 18  2  0
 18 19  1  0
 19 20  2  0
 20 21  1  0
 21 22  2  0
 14 23  1  0
 23 24  1  0
 24 25  2  0
 25 26  1  0
 26 27  1  0
 27 28  2  0
  5  1  1  0
 28  9  1  0
  8  4  2  0
 23 11  2  0
 28 24  1  0
 22 13  1  0
 22 17  1  0
  1 29  1  0
  1 30  1  0
  2 31  1  0
  3 32  1  0
  6 33  1  0
 10 34  1  0
 15 35  1  0
 18 36  1  0
 19 37  1  0
 21 38  1  0
 25 39  1  0
 26 40  1  0
 27 41  1  0
M  END
