
     RDKit          3D

 42 45  0  0  0  0  0  0  0  0999 V2000
    5.1698    2.3956   -0.4138 F   0  0  0  0  0  0  0  0  0  0  0  0
    5.8012    1.2210   -0.2574 C   0  0  0  0  0  0  0  0  0  0  0  0
    5.0655    0.0364   -0.0944 C   0  0  0  0  0  0  0  0  0  0  0  0
    3.5915    0.0268   -0.0976 C   0  0  0  0  0  0  0  0  0  0  0  0
    2.8607    0.6535   -1.1172 C   0  0  0  0  0  0  0  0  0  0  0  0
    1.4598    0.6348   -1.1241 C   0  0  0  0  0  0  0  0  0  0  0  0
    0.7356   -0.0115   -0.1108 C   0  0  0  0  0  0  0  0  0  0  0  0
   -0.7381   -0.0210   -0.1142 C   0  0  0  0  0  0  0  0  0  0  0  0
   -1.4747   -1.2023    0.0518 C   0  0  0  0  0  0  0  0  0  0  0  0
   -0.8438   -2.3771    0.2095 F   0  0  0  0  0  0  0  0  0  0  0  0
   -2.8711   -1.2101    0.0486 C   0  0  0  0  0  0  0  0  0  0  0  0
   -3.5948   -0.0228   -0.1216 C   0  0  0  0  0  0  0  0  0  0  0  0
   -5.0668   -0.0226   -0.1263 C   0  0  0  0  0  0  0  0  0  0  0  0
   -5.7949   -0.6109    0.9215 C   0  0  0  0  0  0  0  0  0  0  0  0
   -7.1925   -0.6108    0.9177 C   0  0  0  0  0  0  0  0  0  0  0  0
   -7.8869   -0.0226   -0.1360 C   0  0  0  0  0  0  0  0  0  0  0  0
   -7.1854    0.5655   -1.1851 C   0  0  0  0  0  0  0  0  0  0  0  0
   -5.7877    0.5655   -1.1793 C   0  0  0  0  0  0  0  0  0  0  0  0
   -2.8679    1.1663   -0.2860 C   0  0  0  0  0  0  0  0  0  0  0  0
   -1.4662    1.1677   -0.2819 C   0  0  0  0  0  0  0  0  0  0  0  0
    1.4665   -0.6382    0.9088 C   0  0  0  0  0  0  0  0  0  0  0  0
    2.8674   -0.6194    0.9156 C   0  0  0  0  0  0  0  0  0  0  0  0
    5.7935   -1.1564    0.0706 C   0  0  0  0  0  0  0  0  0  0  0  0
    7.1929   -1.1577    0.0746 C   0  0  0  0  0  0  0  0  0  0  0  0
    7.8945    0.0348   -0.0866 C   0  0  0  0  0  0  0  0  0  0  0  0
    7.1962    1.2274   -0.2536 C   0  0  0  0  0  0  0  0  0  0  0  0
    3.3792    1.1621   -1.9281 H   0  0  0  0  0  0  0  0  0  0  0  0
    0.9389    1.1249   -1.9443 H   0  0  0  0  0  0  0  0  0  0  0  0
   -3.3823   -2.1617    0.1675 H   0  0  0  0  0  0  0  0  0  0  0  0
   -5.2741   -1.0668    1.7614 H   0  0  0  0  0  0  0  0  0  0  0  0
   -7.7368   -1.0686    1.7397 H   0  0  0  0  0  0  0  0  0  0  0  0
   -8.9737   -0.0229   -0.1398 H   0  0  0  0  0  0  0  0  0  0  0  0
   -7.7241    1.0225   -2.0111 H   0  0  0  0  0  0  0  0  0  0  0  0
   -5.2610    1.0205   -2.0158 H   0  0  0  0  0  0  0  0  0  0  0  0
   -3.3912    2.1140   -0.4042 H   0  0  0  0  0  0  0  0  0  0  0  0
   -0.9453    2.1170   -0.3956 H   0  0  0  0  0  0  0  0  0  0  0  0
    0.9484   -1.1469    1.7199 H   0  0  0  0  0  0  0  0  0  0  0  0
    3.3888   -1.1094    1.7357 H   0  0  0  0  0  0  0  0  0  0  0  0
    5.2697   -2.1041    0.1846 H   0  0  0  0  0  0  0  0  0  0  0  0
    7.7324   -2.0935    0.2007 H   0  0  0  0  0  0  0  0  0  0  0  0
    8.9814    0.0342   -0.0834 H   0  0  0  0  0  0  0  0  0  0  0  0
    7.7253    2.1667   -0.3797 H   0  0  0  0  0  0  0  0  0  0  0  0
  1  2  1  0
  2  3  2  0
  3  4  1  0
  4  5  2  0
  5  6  1  0
  6  7  2  0
  7  8  1  0
  8  9  2  0
  9 10  1  0
  9 11  1  0
 11 12  2  0
 12 13  1  0
 13 14  2  0
 14 15  1  0
 15 16  2  0
 16 17  1  0
 17 18  2  0
 12 19  1  0
 19 20  2  0
  7 21  1  0
 21 22  2  0
  3 23  1  0
 23 24  2  0
 24 25  1  0
 25 26  2  0
 26  2  1  0
 22  4  1  0
 20  8  1  0
 18 13  1  0
  5 27  1  0
  6 28  1  0
 11 29  1  0
 14 30  1  0
 15 31  1  0
 16 32  1  0
 17 33  1  0
 18 34  1  0
 19 35  1  0
 20 36  1  0
 21 37  1  0
 22 38  1  0
 23 39  1  0
 24 40  1  0
 25 41  1  0
 26 42  1  0
M  END
