
     RDKit          3D

 38 40  0  0  0  0  0  0  0  0999 V2000
    6.9478   -0.7206    0.4682 F   0  0  0  0  0  0  0  0  0  0  0  0
    5.6432   -0.4290    0.3866 C   0  0  0  0  0  0  0  0  0  0  0  0
    5.1421    0.6681    1.0755 C   0  0  0  0  0  0  0  0  0  0  0  0
    3.7817    0.9730    0.9887 C   0  0  0  0  0  0  0  0  0  0  0  0
    2.9198    0.1740    0.2226 C   0  0  0  0  0  0  0  0  0  0  0  0
    1.5018    0.5463    0.1343 C   0  0  0  0  0  0  0  0  0  0  0  0
    0.4903   -0.3378    0.1070 C   0  0  0  0  0  0  0  0  0  0  0  0
   -0.8930   -0.1230    0.0337 N   0  0  0  0  0  0  0  0  0  0  0  0
   -1.4058    1.1041   -0.5143 C   0  0  0  0  0  0  0  0  0  0  0  0
   -0.9044    1.6367   -1.7145 C   0  0  0  0  0  0  0  0  0  0  0  0
   -1.4152    2.8258   -2.2419 C   0  0  0  0  0  0  0  0  0  0  0  0
   -2.4375    3.5006   -1.5787 C   0  0  0  0  0  0  0  0  0  0  0  0
   -2.9517    2.9873   -0.3903 C   0  0  0  0  0  0  0  0  0  0  0  0
   -2.4414    1.7980    0.1361 C   0  0  0  0  0  0  0  0  0  0  0  0
   -1.7840   -1.1626    0.4870 C   0  0  0  0  0  0  0  0  0  0  0  0
   -3.0017   -1.4085   -0.1735 C   0  0  0  0  0  0  0  0  0  0  0  0
   -3.8698   -2.4151    0.2595 C   0  0  0  0  0  0  0  0  0  0  0  0
   -3.5379   -3.1947    1.3640 C   0  0  0  0  0  0  0  0  0  0  0  0
   -2.3398   -2.9687    2.0361 C   0  0  0  0  0  0  0  0  0  0  0  0
   -1.4713   -1.9627    1.6015 C   0  0  0  0  0  0  0  0  0  0  0  0
    3.4502   -0.9201   -0.4780 C   0  0  0  0  0  0  0  0  0  0  0  0
    4.8110   -1.2242   -0.3912 C   0  0  0  0  0  0  0  0  0  0  0  0
    5.8105    1.2794    1.6732 H   0  0  0  0  0  0  0  0  0  0  0  0
    3.3980    1.8348    1.5310 H   0  0  0  0  0  0  0  0  0  0  0  0
    1.2927    1.6129    0.1301 H   0  0  0  0  0  0  0  0  0  0  0  0
    0.7217   -1.3994    0.1724 H   0  0  0  0  0  0  0  0  0  0  0  0
   -0.1218    1.1134   -2.2581 H   0  0  0  0  0  0  0  0  0  0  0  0
   -1.0167    3.2202   -3.1729 H   0  0  0  0  0  0  0  0  0  0  0  0
   -2.8349    4.4254   -1.9890 H   0  0  0  0  0  0  0  0  0  0  0  0
   -3.7486    3.5115    0.1304 H   0  0  0  0  0  0  0  0  0  0  0  0
   -2.8458    1.4175    1.0713 H   0  0  0  0  0  0  0  0  0  0  0  0
   -3.2768   -0.8256   -1.0496 H   0  0  0  0  0  0  0  0  0  0  0  0
   -4.8025   -2.5894   -0.2704 H   0  0  0  0  0  0  0  0  0  0  0  0
   -4.2131   -3.9766    1.7015 H   0  0  0  0  0  0  0  0  0  0  0  0
   -2.0806   -3.5701    2.9035 H   0  0  0  0  0  0  0  0  0  0  0  0
   -0.5557   -1.7911    2.1620 H   0  0  0  0  0  0  0  0  0  0  0  0
    2.8141   -1.5391   -1.1065 H   0  0  0  0  0  0  0  0  0  0  0  0
    5.2252   -2.0708   -0.9292 H   0  0  0  0  0  0  0  0  0  0  0  0
  1  2  1  0
  2  3  2  0
  3  4  1  0
  4  5  2  0
  5  6  1  0
  6  7  2  0
  7  8  1  0
  8  9  1  0
  9 10  2  0
 10 11  1  0
 11 12  2  0
 12 13  1  0
 13 14  2  0
  8 15  1  0
 15 16  2  0
 16 17  1  0
 17 18  2  0
 18 19  1  0
 19 20  2  0
  5 21  1  0
 21 22  2  0
 22  2  1  0
 14  9  1  0
 20 15  1  0
  3 23  1  0
  4 24  1  0
  6 25  1  0
  7 26  1  0
 10 27  1  0
 11 28  1  0
 12 29  1  0
 13 30  1  0
 14 31  1  0
 16 32  1  0
 17 33  1  0
 18 34  1  0
 19 35  1  0
 20 36  1  0
 21 37  1  0
 22 38  1  0
M  END
