
     RDKit          3D

 24 26  0  0  0  0  0  0  0  0999 V2000
    5.1744   -0.2666    0.3491 F   0  0  0  0  0  0  0  0  0  0  0  0
    3.8878   -0.1886   -0.0138 C   0  0  0  0  0  0  0  0  0  0  0  0
    3.4781    0.8227   -0.8734 C   0  0  0  0  0  0  0  0  0  0  0  0
    2.1358    0.9017   -1.2512 C   0  0  0  0  0  0  0  0  0  0  0  0
    1.2001   -0.0222   -0.7597 C   0  0  0  0  0  0  0  0  0  0  0  0
    1.6395   -1.0479    0.0919 C   0  0  0  0  0  0  0  0  0  0  0  0
    2.9828   -1.1265    0.4690 C   0  0  0  0  0  0  0  0  0  0  0  0
   -0.1955    0.0808   -1.1807 C   0  0  0  0  0  0  0  0  0  0  0  0
   -0.6039    0.2355   -2.4296 N   0  0  0  0  0  0  0  0  0  0  0  0
   -1.9781    0.2741   -2.4464 N   0  0  0  0  0  0  0  0  0  0  0  0
   -2.3946    0.1749   -1.2052 C   0  0  0  0  0  0  0  0  0  0  0  0
   -1.3040    0.0749   -0.3507 N   0  0  0  0  0  0  0  0  0  0  0  0
   -1.4342    0.0148    1.0399 C   0  0  0  0  0  0  0  0  0  0  0  0
   -2.6626    0.0233    1.5862 C   0  0  0  0  0  0  0  0  0  0  0  0
   -3.8240    0.0952    0.7127 C   0  0  0  0  0  0  0  0  0  0  0  0
   -3.6931    0.1705   -0.6262 C   0  0  0  0  0  0  0  0  0  0  0  0
    4.2028    1.5375   -1.2500 H   0  0  0  0  0  0  0  0  0  0  0  0
    1.8190    1.6871   -1.9363 H   0  0  0  0  0  0  0  0  0  0  0  0
    0.9486   -1.8073    0.4513 H   0  0  0  0  0  0  0  0  0  0  0  0
    3.3307   -1.9183    1.1251 H   0  0  0  0  0  0  0  0  0  0  0  0
   -0.5321   -0.0246    1.6360 H   0  0  0  0  0  0  0  0  0  0  0  0
   -2.8151   -0.0151    2.6600 H   0  0  0  0  0  0  0  0  0  0  0  0
   -4.8077    0.0928    1.1735 H   0  0  0  0  0  0  0  0  0  0  0  0
   -4.5548    0.2313   -1.2814 H   0  0  0  0  0  0  0  0  0  0  0  0
  1  2  1  0
  2  3  2  0
  3  4  1  0
  4  5  2  0
  5  6  1  0
  6  7  2  0
  5  8  1  0
  8  9  2  0
  9 10  1  0
 10 11  2  0
 11 12  1  0
 12 13  1  0
 13 14  2  0
 14 15  1  0
 15 16  2  0
  7  2  1  0
 12  8  1  0
 16 11  1  0
  3 17  1  0
  4 18  1  0
  6 19  1  0
  7 20  1  0
 13 21  1  0
 14 22  1  0
 15 23  1  0
 16 24  1  0
M  END
