
     RDKit          3D

 33 37  0  0  0  0  0  0  0  0999 V2000
    5.2965   -2.1168    0.3339 F   0  0  0  0  0  0  0  0  0  0  0  0
    3.9784   -1.9019    0.2306 C   0  0  0  0  0  0  0  0  0  0  0  0
    3.4959   -0.5936    0.2724 C   0  0  0  0  0  0  0  0  0  0  0  0
    2.1186   -0.3229    0.1675 C   0  0  0  0  0  0  0  0  0  0  0  0
    1.2578   -1.4288    0.0194 C   0  0  0  0  0  0  0  0  0  0  0  0
    1.7562   -2.7434   -0.0214 C   0  0  0  0  0  0  0  0  0  0  0  0
    3.1220   -2.9801    0.0847 C   0  0  0  0  0  0  0  0  0  0  0  0
   -0.1751   -1.1891   -0.0925 C   0  0  0  0  0  0  0  0  0  0  0  0
   -1.0987   -2.1139   -0.2344 N   0  0  0  0  0  0  0  0  0  0  0  0
   -2.2792   -1.4384   -0.2957 C   0  0  0  0  0  0  0  0  0  0  0  0
   -3.5668   -1.9808   -0.4453 C   0  0  0  0  0  0  0  0  0  0  0  0
   -4.6680   -1.1275   -0.4880 C   0  0  0  0  0  0  0  0  0  0  0  0
   -4.4875    0.2456   -0.3832 C   0  0  0  0  0  0  0  0  0  0  0  0
   -3.2094    0.8046   -0.2334 C   0  0  0  0  0  0  0  0  0  0  0  0
   -2.0942   -0.0543   -0.1897 C   0  0  0  0  0  0  0  0  0  0  0  0
   -0.7109    0.0944   -0.0571 N   0  0  0  0  0  0  0  0  0  0  0  0
    0.1264    1.2490    0.0921 C   0  0  0  0  0  0  0  0  0  0  0  0
    1.5337    1.0473    0.2041 C   0  0  0  0  0  0  0  0  0  0  0  0
    2.3453    2.1926    0.3504 C   0  0  0  0  0  0  0  0  0  0  0  0
    1.8060    3.4788    0.3857 C   0  0  0  0  0  0  0  0  0  0  0  0
    0.4367    3.6543    0.2754 C   0  0  0  0  0  0  0  0  0  0  0  0
   -0.3995    2.5471    0.1294 C   0  0  0  0  0  0  0  0  0  0  0  0
    4.2348    0.1909    0.3888 H   0  0  0  0  0  0  0  0  0  0  0  0
    1.0711   -3.5818   -0.1366 H   0  0  0  0  0  0  0  0  0  0  0  0
    3.5174   -3.9899    0.0545 H   0  0  0  0  0  0  0  0  0  0  0  0
   -3.6904   -3.0557   -0.5258 H   0  0  0  0  0  0  0  0  0  0  0  0
   -5.6668   -1.5404   -0.6035 H   0  0  0  0  0  0  0  0  0  0  0  0
   -5.3550    0.9024   -0.4179 H   0  0  0  0  0  0  0  0  0  0  0  0
   -3.1411    1.8796   -0.1579 H   0  0  0  0  0  0  0  0  0  0  0  0
    3.4248    2.1167    0.4414 H   0  0  0  0  0  0  0  0  0  0  0  0
    2.4597    4.3402    0.4996 H   0  0  0  0  0  0  0  0  0  0  0  0
    0.0133    4.6557    0.3026 H   0  0  0  0  0  0  0  0  0  0  0  0
   -1.4520    2.7599    0.0497 H   0  0  0  0  0  0  0  0  0  0  0  0
  1  2  1  0
  2  3  2  0
  3  4  1  0
  4  5  2  0
  5  6  1  0
  6  7  2  0
  5  8  1  0
  8  9  2  0
  9 10  1  0
 10 11  2  0
 11 12  1  0
 12 13  2  0
 13 14  1  0
 10 15  1  0
 15 16  1  0
 16 17  1  0
 17 18  2  0
 18 19  1  0
 19 20  2  0
 20 21  1  0
 21 22  2  0
  7  2  1  0
 18  4  1  0
 16  8  1  0
 15 14  2  0
 22 17  1  0
  3 23  1  0
  6 24  1  0
  7 25  1  0
 11 26  1  0
 12 27  1  0
 13 28  1  0
 14 29  1  0
 19 30  1  0
 20 31  1  0
 21 32  1  0
 22 33  1  0
M  END
