
     RDKit          3D

 28 29  0  0  0  0  0  0  0  0999 V2000
    0.8498    1.0144    2.1267 F   0  0  0  0  0  0  0  0  0  0  0  0
    1.4764    0.5082    1.0531 C   0  0  0  0  0  0  0  0  0  0  0  0
    0.7347    0.0057   -0.0292 C   0  0  0  0  0  0  0  0  0  0  0  0
   -0.7394   -0.0019   -0.0302 C   0  0  0  0  0  0  0  0  0  0  0  0
   -1.4668    0.4965   -1.1240 C   0  0  0  0  0  0  0  0  0  0  0  0
   -2.8659    0.4816   -1.1327 C   0  0  0  0  0  0  0  0  0  0  0  0
   -1.4665   -0.5107    1.0577 C   0  0  0  0  0  0  0  0  0  0  0  0
   -2.8654   -0.5273    1.0520 C   0  0  0  0  0  0  0  0  0  0  0  0
   -3.5760   -0.0432   -0.0496 C   0  0  0  0  0  0  0  0  0  0  0  0
   -5.0754   -0.0277   -0.0417 C   0  0  0  0  0  0  0  0  0  0  0  0
    1.4571   -0.4954   -1.1250 C   0  0  0  0  0  0  0  0  0  0  0  0
    2.8521   -0.4886   -1.1238 C   0  0  0  0  0  0  0  0  0  0  0  0
    3.4993   -0.9700   -2.1946 F   0  0  0  0  0  0  0  0  0  0  0  0
    3.5789    0.0039   -0.0388 C   0  0  0  0  0  0  0  0  0  0  0  0
    5.0756    0.0271   -0.0751 C   0  0  0  0  0  0  0  0  0  0  0  0
    2.8738    0.5155    1.0535 C   0  0  0  0  0  0  0  0  0  0  0  0
   -0.9476    0.9196   -1.9817 H   0  0  0  0  0  0  0  0  0  0  0  0
   -3.3953    0.8866   -1.9922 H   0  0  0  0  0  0  0  0  0  0  0  0
   -0.9453   -0.9033    1.9291 H   0  0  0  0  0  0  0  0  0  0  0  0
   -3.3936   -0.9220    1.9171 H   0  0  0  0  0  0  0  0  0  0  0  0
   -5.4717   -0.8650    0.5423 H   0  0  0  0  0  0  0  0  0  0  0  0
   -5.4378    0.9094    0.3922 H   0  0  0  0  0  0  0  0  0  0  0  0
   -5.4724   -0.1244   -1.0577 H   0  0  0  0  0  0  0  0  0  0  0  0
    0.9437   -0.9076   -1.9899 H   0  0  0  0  0  0  0  0  0  0  0  0
    5.4231    0.8701   -0.6804 H   0  0  0  0  0  0  0  0  0  0  0  0
    5.4666   -0.9036   -0.4992 H   0  0  0  0  0  0  0  0  0  0  0  0
    5.4942    0.1262    0.9319 H   0  0  0  0  0  0  0  0  0  0  0  0
    3.3936    0.9259    1.9148 H   0  0  0  0  0  0  0  0  0  0  0  0
  1  2  1  0
  2  3  2  0
  3  4  1  0
  4  5  2  0
  5  6  1  0
  4  7  1  0
  7  8  2  0
  8  9  1  0
  9 10  1  0
  3 11  1  0
 11 12  2  0
 12 13  1  0
 12 14  1  0
 14 15  1  0
 14 16  2  0
 16  2  1  0
  9  6  2  0
  5 17  1  0
  6 18  1  0
  7 19  1  0
  8 20  1  0
 10 21  1  0
 10 22  1  0
 10 23  1  0
 11 24  1  0
 15 25  1  0
 15 26  1  0
 15 27  1  0
 16 28  1  0
M  END
