
     RDKit          3D

 39 42  0  0  0  0  0  0  0  0999 V2000
   -2.7034   -0.5001    2.4009 F   0  0  0  0  0  0  0  0  0  0  0  0
   -3.4547   -0.3553    1.2981 C   0  0  0  0  0  0  0  0  0  0  0  0
   -2.8601    0.0098    0.0786 C   0  0  0  0  0  0  0  0  0  0  0  0
   -1.4077    0.2337   -0.0460 C   0  0  0  0  0  0  0  0  0  0  0  0
   -0.4874   -0.7159    0.4335 C   0  0  0  0  0  0  0  0  0  0  0  0
    0.8711   -0.4735    0.2888 C   0  0  0  0  0  0  0  0  0  0  0  0
    2.0279   -1.3480    0.7284 C   0  0  0  0  0  0  0  0  0  0  0  0
   -0.9080    1.4097   -0.6601 C   0  0  0  0  0  0  0  0  0  0  0  0
    0.4660    1.6479   -0.8031 C   0  0  0  0  0  0  0  0  0  0  0  0
    1.3510    0.6998   -0.3263 C   0  0  0  0  0  0  0  0  0  0  0  0
    2.7981    0.6661   -0.3288 C   0  0  0  0  0  0  0  0  0  0  0  0
    3.7245    1.5754   -0.8073 C   0  0  0  0  0  0  0  0  0  0  0  0
    5.0850    1.2759   -0.6696 C   0  0  0  0  0  0  0  0  0  0  0  0
    3.2243   -0.5305    0.2853 C   0  0  0  0  0  0  0  0  0  0  0  0
    4.5687   -0.8358    0.4266 C   0  0  0  0  0  0  0  0  0  0  0  0
    5.5143    0.0732   -0.0681 C   0  0  0  0  0  0  0  0  0  0  0  0
    6.9813   -0.2016    0.0945 C   0  0  0  0  0  0  0  0  0  0  0  0
   -3.7083    0.1555   -1.0315 C   0  0  0  0  0  0  0  0  0  0  0  0
   -5.0820   -0.0570   -0.9127 C   0  0  0  0  0  0  0  0  0  0  0  0
   -5.8542    0.1011   -1.9971 F   0  0  0  0  0  0  0  0  0  0  0  0
   -5.6609   -0.4289    0.3017 C   0  0  0  0  0  0  0  0  0  0  0  0
   -7.1420   -0.6217    0.4091 C   0  0  0  0  0  0  0  0  0  0  0  0
   -4.8307   -0.5673    1.4168 C   0  0  0  0  0  0  0  0  0  0  0  0
   -0.8266   -1.6313    0.9104 H   0  0  0  0  0  0  0  0  0  0  0  0
    2.0263   -1.4741    1.8150 H   0  0  0  0  0  0  0  0  0  0  0  0
    2.0038   -2.3109    0.2100 H   0  0  0  0  0  0  0  0  0  0  0  0
   -1.6009    2.1661   -1.0256 H   0  0  0  0  0  0  0  0  0  0  0  0
    0.8166    2.5596   -1.2746 H   0  0  0  0  0  0  0  0  0  0  0  0
    3.4140    2.5027   -1.2761 H   0  0  0  0  0  0  0  0  0  0  0  0
    5.8199    1.9898   -1.0366 H   0  0  0  0  0  0  0  0  0  0  0  0
    4.8772   -1.7581    0.9092 H   0  0  0  0  0  0  0  0  0  0  0  0
    7.3394    0.2260    1.0360 H   0  0  0  0  0  0  0  0  0  0  0  0
    7.1796   -1.2786    0.0966 H   0  0  0  0  0  0  0  0  0  0  0  0
    7.5531    0.2319   -0.7328 H   0  0  0  0  0  0  0  0  0  0  0  0
   -3.3104    0.4261   -2.0061 H   0  0  0  0  0  0  0  0  0  0  0  0
   -7.4011   -1.2086    1.2966 H   0  0  0  0  0  0  0  0  0  0  0  0
   -7.6428    0.3490    0.4760 H   0  0  0  0  0  0  0  0  0  0  0  0
   -7.5255   -1.1634   -0.4618 H   0  0  0  0  0  0  0  0  0  0  0  0
   -5.2356   -0.8385    2.3879 H   0  0  0  0  0  0  0  0  0  0  0  0
  1  2  1  0
  2  3  2  0
  3  4  1  0
  4  5  2  0
  5  6  1  0
  6  7  1  0
  4  8  1  0
  8  9  2  0
  9 10  1  0
 10 11  1  0
 11 12  2  0
 12 13  1  0
 11 14  1  0
 14 15  2  0
 15 16  1  0
 16 17  1  0
  3 18  1  0
 18 19  2  0
 19 20  1  0
 19 21  1  0
 21 22  1  0
 21 23  2  0
 23  2  1  0
 10  6  2  0
 14  7  1  0
 16 13  2  0
  5 24  1  0
  7 25  1  0
  7 26  1  0
  8 27  1  0
  9 28  1  0
 12 29  1  0
 13 30  1  0
 15 31  1  0
 17 32  1  0
 17 33  1  0
 17 34  1  0
 18 35  1  0
 22 36  1  0
 22 37  1  0
 22 38  1  0
 23 39  1  0
M  END
