
     RDKit          3D

 38 41  0  0  0  0  0  0  0  0999 V2000
    2.6615   -1.6472   -1.6935 F   0  0  0  0  0  0  0  0  0  0  0  0
    3.4019   -0.7693   -0.9986 C   0  0  0  0  0  0  0  0  0  0  0  0
    2.8036    0.0492   -0.0258 C   0  0  0  0  0  0  0  0  0  0  0  0
    1.3579   -0.0096    0.2638 C   0  0  0  0  0  0  0  0  0  0  0  0
    0.4134    0.0612   -0.7782 C   0  0  0  0  0  0  0  0  0  0  0  0
   -0.9515    0.0125   -0.4594 C   0  0  0  0  0  0  0  0  0  0  0  0
   -2.0552    0.0588   -1.2781 N   0  0  0  0  0  0  0  0  0  0  0  0
    0.8952   -0.1289    1.5847 C   0  0  0  0  0  0  0  0  0  0  0  0
   -0.4736   -0.1756    1.8891 C   0  0  0  0  0  0  0  0  0  0  0  0
   -1.4173   -0.1022    0.8474 C   0  0  0  0  0  0  0  0  0  0  0  0
   -2.8475   -0.1202    0.7938 C   0  0  0  0  0  0  0  0  0  0  0  0
   -3.8643   -0.2200    1.7643 C   0  0  0  0  0  0  0  0  0  0  0  0
   -5.2060   -0.2077    1.3619 C   0  0  0  0  0  0  0  0  0  0  0  0
   -3.2166   -0.0162   -0.5457 C   0  0  0  0  0  0  0  0  0  0  0  0
   -4.5527   -0.0034   -0.9671 C   0  0  0  0  0  0  0  0  0  0  0  0
   -5.5545   -0.0878    0.0126 C   0  0  0  0  0  0  0  0  0  0  0  0
   -6.9998   -0.1107   -0.3952 C   0  0  0  0  0  0  0  0  0  0  0  0
    3.6411    0.9369    0.6699 C   0  0  0  0  0  0  0  0  0  0  0  0
    5.0079    0.9919    0.3957 C   0  0  0  0  0  0  0  0  0  0  0  0
    5.7700    1.8489    1.0899 F   0  0  0  0  0  0  0  0  0  0  0  0
    5.5901    0.1805   -0.5793 C   0  0  0  0  0  0  0  0  0  0  0  0
    7.0647    0.2378   -0.8331 C   0  0  0  0  0  0  0  0  0  0  0  0
    4.7711   -0.7144   -1.2724 C   0  0  0  0  0  0  0  0  0  0  0  0
    0.7321    0.1543   -1.8129 H   0  0  0  0  0  0  0  0  0  0  0  0
   -2.0181    0.1366   -2.2835 H   0  0  0  0  0  0  0  0  0  0  0  0
    1.6044   -0.2009    2.4077 H   0  0  0  0  0  0  0  0  0  0  0  0
   -0.7995   -0.2716    2.9205 H   0  0  0  0  0  0  0  0  0  0  0  0
   -3.6124   -0.3091    2.8167 H   0  0  0  0  0  0  0  0  0  0  0  0
   -5.9810   -0.2928    2.1208 H   0  0  0  0  0  0  0  0  0  0  0  0
   -4.8051    0.0710   -2.0205 H   0  0  0  0  0  0  0  0  0  0  0  0
   -7.6314    0.3361    0.3798 H   0  0  0  0  0  0  0  0  0  0  0  0
   -7.1562    0.4660   -1.3129 H   0  0  0  0  0  0  0  0  0  0  0  0
   -7.3236   -1.1420   -0.5657 H   0  0  0  0  0  0  0  0  0  0  0  0
    3.2394    1.6048    1.4276 H   0  0  0  0  0  0  0  0  0  0  0  0
    7.6005   -0.3193   -0.0584 H   0  0  0  0  0  0  0  0  0  0  0  0
    7.3154   -0.1935   -1.8079 H   0  0  0  0  0  0  0  0  0  0  0  0
    7.4164    1.2748   -0.8366 H   0  0  0  0  0  0  0  0  0  0  0  0
    5.1796   -1.3789   -2.0286 H   0  0  0  0  0  0  0  0  0  0  0  0
  1  2  1  0
  2  3  2  0
  3  4  1  0
  4  5  2  0
  5  6  1  0
  6  7  1  0
  4  8  1  0
  8  9  2  0
  9 10  1  0
 10 11  1  0
 11 12  1  0
 12 13  2  0
 11 14  2  0
 14 15  1  0
 15 16  2  0
 16 17  1  0
  3 18  1  0
 18 19  2  0
 19 20  1  0
 19 21  1  0
 21 22  1  0
 21 23  2  0
 23  2  1  0
 10  6  2  0
 14  7  1  0
 16 13  1  0
  5 24  1  0
  7 25  1  0
  8 26  1  0
  9 27  1  0
 12 28  1  0
 13 29  1  0
 15 30  1  0
 17 31  1  0
 17 32  1  0
 17 33  1  0
 18 34  1  0
 22 35  1  0
 22 36  1  0
 22 37  1  0
 23 38  1  0
M  END
