
     RDKit          3D

 35 36  0  0  0  0  0  0  0  0999 V2000
   -0.5481    2.3897    0.6084 N   0  0  0  0  0  0  0  0  0  0  0  0
   -0.4703    1.3179    0.1695 C   0  0  0  0  0  0  0  0  0  0  0  0
   -0.3943    0.0142   -0.3892 C   0  0  0  0  0  0  0  0  0  0  0  0
    0.5010   -0.9057    0.0253 C   0  0  0  0  0  0  0  0  0  0  0  0
    1.5026   -0.7283    1.0626 C   0  0  0  0  0  0  0  0  0  0  0  0
    2.3523   -1.7064    1.4158 C   0  0  0  0  0  0  0  0  0  0  0  0
    3.3849   -1.5621    2.4527 C   0  0  0  0  0  0  0  0  0  0  0  0
    4.6204   -2.1971    2.2694 C   0  0  0  0  0  0  0  0  0  0  0  0
    5.6188   -2.1073    3.2427 C   0  0  0  0  0  0  0  0  0  0  0  0
    5.3877   -1.3910    4.4149 C   0  0  0  0  0  0  0  0  0  0  0  0
    4.1576   -0.7689    4.6166 C   0  0  0  0  0  0  0  0  0  0  0  0
    3.1590   -0.8582    3.6431 C   0  0  0  0  0  0  0  0  0  0  0  0
   -1.3393   -0.3918   -1.4820 C   0  0  0  0  0  0  0  0  0  0  0  0
   -1.3231   -1.5230   -1.9624 O   0  0  0  0  0  0  0  0  0  0  0  0
   -2.2163    0.5691   -1.9209 N   0  0  0  0  0  0  0  0  0  0  0  0
   -3.0863    0.3133   -3.0478 C   0  0  0  0  0  0  0  0  0  0  0  0
   -4.0984    1.3931   -3.1227 C   0  0  0  0  0  0  0  0  0  0  0  0
   -5.4776    1.4053   -3.0979 C   0  0  0  0  0  0  0  0  0  0  0  0
   -5.8672    2.7628   -3.1994 C   0  0  0  0  0  0  0  0  0  0  0  0
   -4.7040    3.4914   -3.2783 C   0  0  0  0  0  0  0  0  0  0  0  0
   -3.6241    2.6698   -3.2320 O   0  0  0  0  0  0  0  0  0  0  0  0
    0.4961   -1.8893   -0.4478 H   0  0  0  0  0  0  0  0  0  0  0  0
    1.5667    0.2407    1.5544 H   0  0  0  0  0  0  0  0  0  0  0  0
    2.3249   -2.6736    0.9182 H   0  0  0  0  0  0  0  0  0  0  0  0
    4.8212   -2.7611    1.3612 H   0  0  0  0  0  0  0  0  0  0  0  0
    6.5759   -2.5976    3.0850 H   0  0  0  0  0  0  0  0  0  0  0  0
    6.1636   -1.3215    5.1727 H   0  0  0  0  0  0  0  0  0  0  0  0
    3.9715   -0.2172    5.5345 H   0  0  0  0  0  0  0  0  0  0  0  0
    2.2012   -0.3801    3.8332 H   0  0  0  0  0  0  0  0  0  0  0  0
   -2.1458    1.5373   -1.6271 H   0  0  0  0  0  0  0  0  0  0  0  0
   -2.4737    0.2931   -3.9552 H   0  0  0  0  0  0  0  0  0  0  0  0
   -3.5585   -0.6674   -2.9277 H   0  0  0  0  0  0  0  0  0  0  0  0
   -6.1215    0.5406   -3.0139 H   0  0  0  0  0  0  0  0  0  0  0  0
   -6.8714    3.1626   -3.2118 H   0  0  0  0  0  0  0  0  0  0  0  0
   -4.4852    4.5468   -3.3656 H   0  0  0  0  0  0  0  0  0  0  0  0
  1  2  3  0
  2  3  1  0
  3  4  2  3
  4  5  1  0
  5  6  2  3
  6  7  1  0
  7  8  2  0
  8  9  1  0
  9 10  2  0
 10 11  1  0
 11 12  2  0
  3 13  1  0
 13 14  2  0
 13 15  1  0
 15 16  1  0
 16 17  1  0
 17 18  2  0
 18 19  1  0
 19 20  2  0
 20 21  1  0
 12  7  1  0
 21 17  1  0
  4 22  1  0
  5 23  1  0
  6 24  1  0
  8 25  1  0
  9 26  1  0
 10 27  1  0
 11 28  1  0
 12 29  1  0
 15 30  1  0
 16 31  1  0
 16 32  1  0
 18 33  1  0
 19 34  1  0
 20 35  1  0
M  END
