
     RDKit          3D

 32 33  0  0  0  0  0  0  0  0999 V2000
   -2.5553   -3.9531    0.8527 N   0  0  0  0  0  0  0  0  0  0  0  0
   -1.7514   -3.1165    0.8185 C   0  0  0  0  0  0  0  0  0  0  0  0
   -0.7610   -2.1040    0.7161 C   0  0  0  0  0  0  0  0  0  0  0  0
    0.3647   -2.2976    0.0020 C   0  0  0  0  0  0  0  0  0  0  0  0
    1.4621   -1.3371   -0.1716 C   0  0  0  0  0  0  0  0  0  0  0  0
    1.8659   -0.9954   -1.4682 C   0  0  0  0  0  0  0  0  0  0  0  0
    2.9160   -0.0937   -1.6693 C   0  0  0  0  0  0  0  0  0  0  0  0
    3.5798    0.4670   -0.5740 C   0  0  0  0  0  0  0  0  0  0  0  0
    4.6538    1.3940   -0.7802 C   0  0  0  0  0  0  0  0  0  0  0  0
    5.5211    2.1454   -0.9537 N   0  0  0  0  0  0  0  0  0  0  0  0
    3.1925    0.1157    0.7218 C   0  0  0  0  0  0  0  0  0  0  0  0
    2.1431   -0.7871    0.9211 C   0  0  0  0  0  0  0  0  0  0  0  0
   -1.0193   -0.8367    1.4425 C   0  0  0  0  0  0  0  0  0  0  0  0
   -0.7126   -0.7429    2.6290 O   0  0  0  0  0  0  0  0  0  0  0  0
   -1.6013    0.1839    0.7271 N   0  0  0  0  0  0  0  0  0  0  0  0
   -2.0536    0.1612   -0.6575 C   0  0  0  0  0  0  0  0  0  0  0  0
   -2.3784    1.6149   -0.9705 C   0  0  0  0  0  0  0  0  0  0  0  0
   -2.8297    2.1601    0.3782 C   0  0  0  0  0  0  0  0  0  0  0  0
   -1.8996    1.4587    1.3572 C   0  0  0  0  0  0  0  0  0  0  0  0
    0.5077   -3.2400   -0.5261 H   0  0  0  0  0  0  0  0  0  0  0  0
    1.3646   -1.4218   -2.3351 H   0  0  0  0  0  0  0  0  0  0  0  0
    3.2114    0.1650   -2.6848 H   0  0  0  0  0  0  0  0  0  0  0  0
    3.7023    0.5374    1.5866 H   0  0  0  0  0  0  0  0  0  0  0  0
    1.8684   -1.0528    1.9415 H   0  0  0  0  0  0  0  0  0  0  0  0
   -2.9492   -0.4676   -0.7081 H   0  0  0  0  0  0  0  0  0  0  0  0
   -1.2908   -0.2476   -1.3241 H   0  0  0  0  0  0  0  0  0  0  0  0
   -3.1370    1.7190   -1.7509 H   0  0  0  0  0  0  0  0  0  0  0  0
   -1.4727    2.1399   -1.2974 H   0  0  0  0  0  0  0  0  0  0  0  0
   -2.7668    3.2496    0.4434 H   0  0  0  0  0  0  0  0  0  0  0  0
   -3.8681    1.8629    0.5683 H   0  0  0  0  0  0  0  0  0  0  0  0
   -2.3512    1.3166    2.3437 H   0  0  0  0  0  0  0  0  0  0  0  0
   -0.9555    2.0027    1.4725 H   0  0  0  0  0  0  0  0  0  0  0  0
  1  2  3  0
  2  3  1  0
  3  4  2  3
  4  5  1  0
  5  6  2  0
  6  7  1  0
  7  8  2  0
  8  9  1  0
  9 10  3  0
  8 11  1  0
 11 12  2  0
  3 13  1  0
 13 14  2  0
 13 15  1  0
 15 16  1  0
 16 17  1  0
 17 18  1  0
 18 19  1  0
 12  5  1  0
 19 15  1  0
  4 20  1  0
  6 21  1  0
  7 22  1  0
 11 23  1  0
 12 24  1  0
 16 25  1  0
 16 26  1  0
 17 27  1  0
 17 28  1  0
 18 29  1  0
 18 30  1  0
 19 31  1  0
 19 32  1  0
M  END
