
     RDKit          3D

 28 29  0  0  0  0  0  0  0  0999 V2000
    0.6260   -3.0195    0.4584 N   0  0  0  0  0  0  0  0  0  0  0  0
    0.1598   -1.9565    0.4605 C   0  0  0  0  0  0  0  0  0  0  0  0
   -0.4166   -0.6565    0.4429 C   0  0  0  0  0  0  0  0  0  0  0  0
    0.3642    0.4943    0.9852 C   0  0  0  0  0  0  0  0  0  0  0  0
   -0.1593    1.3596    1.6860 O   0  0  0  0  0  0  0  0  0  0  0  0
    1.8199    0.5729    0.6960 C   0  0  0  0  0  0  0  0  0  0  0  0
    2.3545    0.1732   -0.5356 C   0  0  0  0  0  0  0  0  0  0  0  0
    3.7286    0.2762   -0.7634 C   0  0  0  0  0  0  0  0  0  0  0  0
    4.5667    0.7886    0.2270 C   0  0  0  0  0  0  0  0  0  0  0  0
    4.0346    1.2086    1.4454 C   0  0  0  0  0  0  0  0  0  0  0  0
    2.6626    1.1073    1.6789 C   0  0  0  0  0  0  0  0  0  0  0  0
   -1.6697   -0.4367   -0.0033 C   0  0  0  0  0  0  0  0  0  0  0  0
   -2.6039   -1.5209   -0.5147 C   0  0  0  0  0  0  0  0  0  0  0  0
   -3.7818   -0.7221   -1.0857 C   0  0  0  0  0  0  0  0  0  0  0  0
   -3.7721    0.5855   -0.2976 C   0  0  0  0  0  0  0  0  0  0  0  0
   -2.3549    0.7681   -0.0526 N   0  0  0  0  0  0  0  0  0  0  0  0
    1.7215   -0.2019   -1.3354 H   0  0  0  0  0  0  0  0  0  0  0  0
    4.1468   -0.0374   -1.7173 H   0  0  0  0  0  0  0  0  0  0  0  0
    5.6360    0.8687    0.0455 H   0  0  0  0  0  0  0  0  0  0  0  0
    4.6874    1.6182    2.2125 H   0  0  0  0  0  0  0  0  0  0  0  0
    2.2532    1.4451    2.6291 H   0  0  0  0  0  0  0  0  0  0  0  0
   -2.1491   -2.1500   -1.2857 H   0  0  0  0  0  0  0  0  0  0  0  0
   -2.9430   -2.1469    0.3184 H   0  0  0  0  0  0  0  0  0  0  0  0
   -3.6043   -0.5168   -2.1492 H   0  0  0  0  0  0  0  0  0  0  0  0
   -4.7330   -1.2557   -1.0016 H   0  0  0  0  0  0  0  0  0  0  0  0
   -4.3107    0.4805    0.6504 H   0  0  0  0  0  0  0  0  0  0  0  0
   -4.1971    1.4161   -0.8674 H   0  0  0  0  0  0  0  0  0  0  0  0
   -2.0662    1.4579    0.6493 H   0  0  0  0  0  0  0  0  0  0  0  0
  1  2  3  0
  2  3  1  0
  3  4  1  0
  4  5  2  0
  4  6  1  0
  6  7  2  0
  7  8  1  0
  8  9  2  0
  9 10  1  0
 10 11  2  0
  3 12  2  3
 12 13  1  0
 13 14  1  0
 14 15  1  0
 15 16  1  0
 11  6  1  0
 16 12  1  0
  7 17  1  0
  8 18  1  0
  9 19  1  0
 10 20  1  0
 11 21  1  0
 13 22  1  0
 13 23  1  0
 14 24  1  0
 14 25  1  0
 15 26  1  0
 15 27  1  0
 16 28  1  0
M  END
