
     RDKit          3D

 24 26  0  0  0  0  0  0  0  0999 V2000
    5.7721    0.3347   -1.1082 N   0  0  0  0  0  0  0  0  0  0  0  0
    4.6478    0.2485   -0.8334 C   0  0  0  0  0  0  0  0  0  0  0  0
    3.2612    0.1390   -0.4858 C   0  0  0  0  0  0  0  0  0  0  0  0
    2.3964   -0.6236   -1.2753 C   0  0  0  0  0  0  0  0  0  0  0  0
    1.0437   -0.7297   -0.9350 C   0  0  0  0  0  0  0  0  0  0  0  0
    2.7662    0.7961    0.6444 C   0  0  0  0  0  0  0  0  0  0  0  0
    1.4131    0.6895    0.9837 C   0  0  0  0  0  0  0  0  0  0  0  0
    0.5383   -0.0767    0.1983 C   0  0  0  0  0  0  0  0  0  0  0  0
   -0.8887   -0.1947    0.5545 C   0  0  0  0  0  0  0  0  0  0  0  0
   -1.2297   -0.6844    1.7617 C   0  0  0  0  0  0  0  0  0  0  0  0
   -2.6879   -0.7833    2.0368 C   0  0  0  0  0  0  0  0  0  0  0  0
   -3.6484   -0.4502    1.2337 N   0  0  0  0  0  0  0  0  0  0  0  0
   -3.2655    0.0379    0.0171 C   0  0  0  0  0  0  0  0  0  0  0  0
   -4.0148    0.4474   -0.9829 N   0  0  0  0  0  0  0  0  0  0  0  0
   -3.1112    0.8211   -1.9257 C   0  0  0  0  0  0  0  0  0  0  0  0
   -1.8292    0.6736   -1.5975 N   0  0  0  0  0  0  0  0  0  0  0  0
   -1.9120    0.1696   -0.3374 N   0  0  0  0  0  0  0  0  0  0  0  0
    2.7640   -1.1356   -2.1630 H   0  0  0  0  0  0  0  0  0  0  0  0
    0.3876   -1.3219   -1.5716 H   0  0  0  0  0  0  0  0  0  0  0  0
    3.4267    1.4000    1.2645 H   0  0  0  0  0  0  0  0  0  0  0  0
    1.0495    1.2239    1.8594 H   0  0  0  0  0  0  0  0  0  0  0  0
   -0.5342   -1.0130    2.5223 H   0  0  0  0  0  0  0  0  0  0  0  0
   -2.9462   -1.1841    3.0317 H   0  0  0  0  0  0  0  0  0  0  0  0
   -3.3987    1.2160   -2.8922 H   0  0  0  0  0  0  0  0  0  0  0  0
  1  2  3  0
  2  3  1  0
  3  4  2  0
  4  5  1  0
  3  6  1  0
  6  7  2  0
  7  8  1  0
  8  9  1  0
  9 10  2  0
 10 11  1  0
 11 12  2  0
 12 13  1  0
 13 14  2  0
 14 15  1  0
 15 16  2  0
 16 17  1  0
  8  5  2  0
 17  9  1  0
 17 13  1  0
  4 18  1  0
  5 19  1  0
  6 20  1  0
  7 21  1  0
 10 22  1  0
 11 23  1  0
 15 24  1  0
M  END
