
     RDKit          3D

 24 26  0  0  0  0  0  0  0  0999 V2000
   -0.9958   -3.1443    1.2534 N   0  0  0  0  0  0  0  0  0  0  0  0
   -1.3982   -2.1900    0.7267 C   0  0  0  0  0  0  0  0  0  0  0  0
   -1.9575   -1.0495    0.0550 C   0  0  0  0  0  0  0  0  0  0  0  0
   -3.3124   -1.0888   -0.3116 C   0  0  0  0  0  0  0  0  0  0  0  0
   -3.8989   -0.0099   -0.9750 C   0  0  0  0  0  0  0  0  0  0  0  0
   -3.1371    1.1157   -1.2772 C   0  0  0  0  0  0  0  0  0  0  0  0
   -1.7891    1.1639   -0.9170 C   0  0  0  0  0  0  0  0  0  0  0  0
   -1.1856    0.0866   -0.2476 C   0  0  0  0  0  0  0  0  0  0  0  0
    0.2372    0.1904    0.0946 C   0  0  0  0  0  0  0  0  0  0  0  0
    1.2065   -0.1095   -0.8104 C   0  0  0  0  0  0  0  0  0  0  0  0
    2.3617    0.0881   -0.1304 N   0  0  0  0  0  0  0  0  0  0  0  0
    3.7337    0.0162   -0.2100 C   0  0  0  0  0  0  0  0  0  0  0  0
    4.2863    0.3984    1.0916 C   0  0  0  0  0  0  0  0  0  0  0  0
    3.1464    0.7020    1.9555 C   0  0  0  0  0  0  0  0  0  0  0  0
    2.0102    0.5178    1.2139 N   0  0  0  0  0  4  0  0  0  0  0  0
    0.5692    0.5921    1.3740 N   0  0  0  0  0  2  0  0  0  0  0  0
   -3.9179   -1.9635   -0.0801 H   0  0  0  0  0  0  0  0  0  0  0  0
   -4.9493   -0.0473   -1.2531 H   0  0  0  0  0  0  0  0  0  0  0  0
   -3.5910    1.9601   -1.7900 H   0  0  0  0  0  0  0  0  0  0  0  0
   -1.2064    2.0531   -1.1513 H   0  0  0  0  0  0  0  0  0  0  0  0
    1.1516   -0.4425   -1.8337 H   0  0  0  0  0  0  0  0  0  0  0  0
    4.2230   -0.2896   -1.1191 H   0  0  0  0  0  0  0  0  0  0  0  0
    5.3303    0.4399    1.3597 H   0  0  0  0  0  0  0  0  0  0  0  0
    3.0833    1.0106    2.9821 H   0  0  0  0  0  0  0  0  0  0  0  0
  1  2  3  0
  2  3  1  0
  3  4  2  0
  4  5  1  0
  5  6  2  0
  6  7  1  0
  3  8  1  0
  8  9  1  0
  9 10  2  0
 10 11  1  0
 11 12  1  0
 12 13  2  0
 13 14  1  0
 14 15  2  0
 15 16  1  0
  8  7  2  0
 16  9  1  0
 15 11  1  0
  4 17  1  0
  5 18  1  0
  6 19  1  0
  7 20  1  0
 10 21  1  0
 12 22  1  0
 13 23  1  0
 14 24  1  0
M  CHG  2  15   1  16  -1
M  END
