
     RDKit          3D

 39 41  0  0  0  0  0  0  0  0999 V2000
    6.0026    3.2837    4.2418 N   0  0  0  0  0  0  0  0  0  0  0  0
    5.0660    2.8774    3.6897 C   0  0  0  0  0  0  0  0  0  0  0  0
    3.9092    2.3756    3.0077 C   0  0  0  0  0  0  0  0  0  0  0  0
    2.7209    2.1536    3.7088 C   0  0  0  0  0  0  0  0  0  0  0  0
    1.5931    1.6648    3.0412 C   0  0  0  0  0  0  0  0  0  0  0  0
    1.6415    1.3807    1.6702 C   0  0  0  0  0  0  0  0  0  0  0  0
    0.4260    0.8967    1.0035 C   0  0  0  0  0  0  0  0  0  0  0  0
    0.4173   -0.0287    0.0292 C   0  0  0  0  0  0  0  0  0  0  0  0
   -0.6586   -0.5811   -0.6793 N   0  0  0  0  0  0  0  0  0  0  0  0
   -0.4861   -1.8608   -1.3217 C   0  0  0  0  0  0  0  0  0  0  0  0
    0.2861   -2.8793   -0.7331 C   0  0  0  0  0  0  0  0  0  0  0  0
    0.4491   -4.1179   -1.3612 C   0  0  0  0  0  0  0  0  0  0  0  0
   -0.1563   -4.3618   -2.5909 C   0  0  0  0  0  0  0  0  0  0  0  0
   -0.9263   -3.3702   -3.1922 C   0  0  0  0  0  0  0  0  0  0  0  0
   -1.0901   -2.1326   -2.5630 C   0  0  0  0  0  0  0  0  0  0  0  0
   -1.9001    0.1377   -0.7843 C   0  0  0  0  0  0  0  0  0  0  0  0
   -3.1249   -0.5197   -0.5737 C   0  0  0  0  0  0  0  0  0  0  0  0
   -4.3372    0.1669   -0.6792 C   0  0  0  0  0  0  0  0  0  0  0  0
   -4.3448    1.5219   -1.0014 C   0  0  0  0  0  0  0  0  0  0  0  0
   -3.1426    2.1908   -1.2198 C   0  0  0  0  0  0  0  0  0  0  0  0
   -1.9303    1.5040   -1.1131 C   0  0  0  0  0  0  0  0  0  0  0  0
    2.8321    1.6216    0.9713 C   0  0  0  0  0  0  0  0  0  0  0  0
    3.9615    2.1110    1.6363 C   0  0  0  0  0  0  0  0  0  0  0  0
    2.6614    2.3593    4.7760 H   0  0  0  0  0  0  0  0  0  0  0  0
    0.6767    1.4991    3.6050 H   0  0  0  0  0  0  0  0  0  0  0  0
   -0.5108    1.3069    1.3718 H   0  0  0  0  0  0  0  0  0  0  0  0
    1.3624   -0.4695   -0.2828 H   0  0  0  0  0  0  0  0  0  0  0  0
    0.7480   -2.7270    0.2392 H   0  0  0  0  0  0  0  0  0  0  0  0
    1.0444   -4.8924   -0.8847 H   0  0  0  0  0  0  0  0  0  0  0  0
   -0.0298   -5.3245   -3.0793 H   0  0  0  0  0  0  0  0  0  0  0  0
   -1.3989   -3.5547   -4.1534 H   0  0  0  0  0  0  0  0  0  0  0  0
   -1.6824   -1.3694   -3.0626 H   0  0  0  0  0  0  0  0  0  0  0  0
   -3.1364   -1.5748   -0.3096 H   0  0  0  0  0  0  0  0  0  0  0  0
   -5.2731   -0.3581   -0.5075 H   0  0  0  0  0  0  0  0  0  0  0  0
   -5.2878    2.0560   -1.0847 H   0  0  0  0  0  0  0  0  0  0  0  0
   -3.1460    3.2463   -1.4786 H   0  0  0  0  0  0  0  0  0  0  0  0
   -1.0040    2.0381   -1.3091 H   0  0  0  0  0  0  0  0  0  0  0  0
    2.8920    1.4424   -0.1003 H   0  0  0  0  0  0  0  0  0  0  0  0
    4.8763    2.2879    1.0735 H   0  0  0  0  0  0  0  0  0  0  0  0
  1  2  3  0
  2  3  1  0
  3  4  2  0
  4  5  1  0
  5  6  2  0
  6  7  1  0
  7  8  2  0
  8  9  1  0
  9 10  1  0
 10 11  2  0
 11 12  1  0
 12 13  2  0
 13 14  1  0
 14 15  2  0
  9 16  1  0
 16 17  2  0
 17 18  1  0
 18 19  2  0
 19 20  1  0
 20 21  2  0
  6 22  1  0
 22 23  2  0
 23  3  1  0
 15 10  1  0
 21 16  1  0
  4 24  1  0
  5 25  1  0
  7 26  1  0
  8 27  1  0
 11 28  1  0
 12 29  1  0
 13 30  1  0
 14 31  1  0
 15 32  1  0
 17 33  1  0
 18 34  1  0
 19 35  1  0
 20 36  1  0
 21 37  1  0
 22 38  1  0
 23 39  1  0
M  END
