
     RDKit          3D

 32 36  0  0  0  0  0  0  0  0999 V2000
   -3.8414    2.9609   -0.5504 Si  0  0  0  0  0  4  0  0  0  0  0  0
   -5.3872    1.8946   -0.6261 C   0  0  0  0  0  0  0  0  0  0  0  0
   -5.1215    0.5770   -0.5686 C   0  0  0  0  0  0  0  0  0  0  0  0
   -3.6874    0.2616   -0.4597 C   0  0  0  0  0  0  0  0  0  0  0  0
   -3.1614   -1.0237   -0.3851 C   0  0  0  0  0  0  0  0  0  0  0  0
   -1.7715   -1.2079   -0.2832 C   0  0  0  0  0  0  0  0  0  0  0  0
   -1.2337   -2.4914   -0.2078 C   0  0  0  0  0  0  0  0  0  0  0  0
    0.1457   -2.6878   -0.1062 C   0  0  0  0  0  0  0  0  0  0  0  0
    1.0334   -1.5885   -0.0771 C   0  0  0  0  0  0  0  0  0  0  0  0
    2.4645   -1.5695    0.0217 C   0  0  0  0  0  0  0  0  0  0  0  0
    3.0088   -0.3015    0.0220 C   0  0  0  0  0  0  0  0  0  0  0  0
    1.7784    0.8739   -0.0983 S   0  0  0  0  0  0  0  0  0  0  0  0
    0.5032   -0.2965   -0.1522 C   0  0  0  0  0  0  0  0  0  0  0  0
   -0.9090   -0.0757   -0.2568 C   0  0  0  0  0  0  0  0  0  0  0  0
   -1.4519    1.2283   -0.3331 C   0  0  0  0  0  0  0  0  0  0  0  0
   -2.8310    1.3830   -0.4335 C   0  0  0  0  0  0  0  0  0  0  0  0
    4.4190    0.0064    0.1108 C   0  0  0  0  0  0  0  0  0  0  0  0
    5.3219   -0.9531    0.2019 N   0  0  0  0  0  0  0  0  0  0  0  0
    6.5894   -0.4104    0.2740 C   0  0  0  0  0  0  0  0  0  0  0  0
    6.6492    0.9639    0.2375 C   0  0  0  0  0  0  0  0  0  0  0  0
    5.0671    1.6043    0.1087 S   0  0  0  0  0  0  0  0  0  0  0  0
   -3.7872    3.7775    0.6880 H   0  0  0  0  0  0  0  0  0  0  0  0
   -3.6134    3.7033   -1.8153 H   0  0  0  0  0  0  0  0  0  0  0  0
   -6.3641    2.3457   -0.7072 H   0  0  0  0  0  0  0  0  0  0  0  0
   -5.8714   -0.2021   -0.5975 H   0  0  0  0  0  0  0  0  0  0  0  0
   -3.8309   -1.8797   -0.4062 H   0  0  0  0  0  0  0  0  0  0  0  0
   -1.8827   -3.3648   -0.2270 H   0  0  0  0  0  0  0  0  0  0  0  0
    0.5382   -3.7007   -0.0490 H   0  0  0  0  0  0  0  0  0  0  0  0
    3.0739   -2.4640    0.0905 H   0  0  0  0  0  0  0  0  0  0  0  0
   -0.8109    2.1052   -0.3146 H   0  0  0  0  0  0  0  0  0  0  0  0
    7.4444   -1.0709    0.3529 H   0  0  0  0  0  0  0  0  0  0  0  0
    7.5196    1.6025    0.2792 H   0  0  0  0  0  0  0  0  0  0  0  0
  1  2  1  0
  2  3  2  0
  3  4  1  0
  4  5  2  0
  5  6  1  0
  6  7  2  0
  7  8  1  0
  8  9  2  0
  9 10  1  0
 10 11  2  0
 11 12  1  0
 12 13  1  0
 13 14  2  0
 14 15  1  0
 15 16  2  0
 11 17  1  0
 17 18  2  0
 18 19  1  0
 19 20  2  0
 20 21  1  0
 16  1  1  0
 21 17  1  0
 16  4  1  0
 14  6  1  0
 13  9  1  0
  1 22  1  0
  1 23  1  0
  2 24  1  0
  3 25  1  0
  5 26  1  0
  7 27  1  0
  8 28  1  0
 10 29  1  0
 15 30  1  0
 19 31  1  0
 20 32  1  0
M  END
