
     RDKit          3D

 26 28  0  0  0  0  0  0  0  0999 V2000
   -2.9823    2.4459   -2.3772 N   0  0  0  0  0  0  0  0  0  0  0  0
   -2.0536    2.1515   -1.7451 C   0  0  0  0  0  0  0  0  0  0  0  0
   -0.9050    1.8383   -0.9636 C   0  0  0  0  0  0  0  0  0  0  0  0
    0.0501    2.7461   -0.5763 C   0  0  0  0  0  0  0  0  0  0  0  0
    0.2284    4.0606   -0.7708 N   0  0  0  0  0  0  0  0  0  0  0  0
    1.0007    2.1337    0.1655 O   0  0  0  0  0  0  0  0  0  0  0  0
    0.6849    0.7992    0.2546 C   0  0  0  0  0  0  0  0  0  0  0  0
    1.5659   -0.1064    0.9258 C   0  0  0  0  0  0  0  0  0  0  0  0
    2.2581   -1.1880    0.4051 C   0  0  0  0  0  0  0  0  0  0  0  0
    3.0184   -1.7454    1.4618 C   0  0  0  0  0  0  0  0  0  0  0  0
    2.7604   -0.9675    2.5635 C   0  0  0  0  0  0  0  0  0  0  0  0
    1.8925    0.0266    2.2498 O   0  0  0  0  0  0  0  0  0  0  0  0
   -0.5174    0.5870   -0.4074 C   0  0  0  0  0  0  0  0  0  0  0  0
   -1.3327   -0.7379   -0.5313 C   0  0  0  0  0  0  0  0  0  0  0  0
   -1.0964   -1.9591    0.0702 C   0  0  0  0  0  0  0  0  0  0  0  0
   -2.1264   -2.8374   -0.3530 C   0  0  0  0  0  0  0  0  0  0  0  0
   -2.9368   -2.1005   -1.1794 C   0  0  0  0  0  0  0  0  0  0  0  0
   -2.4703   -0.8330   -1.2865 O   0  0  0  0  0  0  0  0  0  0  0  0
   -0.5459    4.6542   -1.0548 H   0  0  0  0  0  0  0  0  0  0  0  0
    0.9080    4.5345   -0.1816 H   0  0  0  0  0  0  0  0  0  0  0  0
    2.2213   -1.5259   -0.6218 H   0  0  0  0  0  0  0  0  0  0  0  0
    3.6805   -2.5990    1.4225 H   0  0  0  0  0  0  0  0  0  0  0  0
    3.1015   -0.9824    3.5895 H   0  0  0  0  0  0  0  0  0  0  0  0
   -0.2994   -2.2062    0.7547 H   0  0  0  0  0  0  0  0  0  0  0  0
   -2.2652   -3.8738   -0.0791 H   0  0  0  0  0  0  0  0  0  0  0  0
   -3.8393   -2.3154   -1.7351 H   0  0  0  0  0  0  0  0  0  0  0  0
  1  2  3  0
  2  3  1  0
  3  4  2  0
  4  5  1  0
  4  6  1  0
  6  7  1  0
  7  8  1  0
  8  9  2  0
  9 10  1  0
 10 11  2  0
 11 12  1  0
  7 13  2  0
 13 14  1  0
 14 15  2  0
 15 16  1  0
 16 17  2  0
 17 18  1  0
 13  3  1  0
 18 14  1  0
 12  8  1  0
  5 19  1  0
  5 20  1  0
  9 21  1  0
 10 22  1  0
 11 23  1  0
 15 24  1  0
 16 25  1  0
 17 26  1  0
M  END
