
     RDKit          3D

 46 50  0  0  0  0  0  0  0  0999 V2000
    8.1609    1.0447    0.7102 N   0  0  0  0  0  0  0  0  0  0  0  0
    7.0150    0.8980    0.5994 C   0  0  0  0  0  0  0  0  0  0  0  0
    5.5992    0.7168    0.4626 C   0  0  0  0  0  0  0  0  0  0  0  0
    5.0881   -0.0351   -0.6014 C   0  0  0  0  0  0  0  0  0  0  0  0
    3.7086   -0.2116   -0.7347 C   0  0  0  0  0  0  0  0  0  0  0  0
    2.8284    0.3621    0.1949 C   0  0  0  0  0  0  0  0  0  0  0  0
    1.4155    0.1812    0.0583 N   0  0  0  0  0  0  0  0  0  0  0  0
    0.7639   -0.9424    0.6872 C   0  0  0  0  0  0  0  0  0  0  0  0
    1.4961   -1.8836    1.4463 C   0  0  0  0  0  0  0  0  0  0  0  0
    0.8758   -2.9731    2.0582 C   0  0  0  0  0  0  0  0  0  0  0  0
   -0.4924   -3.1482    1.9260 C   0  0  0  0  0  0  0  0  0  0  0  0
   -1.2382   -2.2336    1.1821 C   0  0  0  0  0  0  0  0  0  0  0  0
   -0.6346   -1.1214    0.5521 C   0  0  0  0  0  0  0  0  0  0  0  0
   -1.4155   -0.1812   -0.2152 N   0  0  0  0  0  0  0  0  0  0  0  0
   -2.8284   -0.3621   -0.3518 C   0  0  0  0  0  0  0  0  0  0  0  0
   -3.3461   -1.1147   -1.4164 C   0  0  0  0  0  0  0  0  0  0  0  0
   -4.7256   -1.2914   -1.5498 C   0  0  0  0  0  0  0  0  0  0  0  0
   -5.5992   -0.7168   -0.6195 C   0  0  0  0  0  0  0  0  0  0  0  0
   -7.0150   -0.8980   -0.7564 C   0  0  0  0  0  0  0  0  0  0  0  0
   -8.1609   -1.0447   -0.8671 N   0  0  0  0  0  0  0  0  0  0  0  0
   -5.0881    0.0351    0.4445 C   0  0  0  0  0  0  0  0  0  0  0  0
   -3.7086    0.2117    0.5778 C   0  0  0  0  0  0  0  0  0  0  0  0
   -0.7639    0.9424   -0.8441 C   0  0  0  0  0  0  0  0  0  0  0  0
   -1.4961    1.8836   -1.6032 C   0  0  0  0  0  0  0  0  0  0  0  0
   -0.8758    2.9731   -2.2151 C   0  0  0  0  0  0  0  0  0  0  0  0
    0.4924    3.1483   -2.0828 C   0  0  0  0  0  0  0  0  0  0  0  0
    1.2382    2.2336   -1.3389 C   0  0  0  0  0  0  0  0  0  0  0  0
    0.6346    1.1214   -0.7090 C   0  0  0  0  0  0  0  0  0  0  0  0
    3.3461    1.1147    1.2595 C   0  0  0  0  0  0  0  0  0  0  0  0
    4.7256    1.2913    1.3929 C   0  0  0  0  0  0  0  0  0  0  0  0
    5.7567   -0.4872   -1.3317 H   0  0  0  0  0  0  0  0  0  0  0  0
    3.3125   -0.7963   -1.5622 H   0  0  0  0  0  0  0  0  0  0  0  0
    2.5703   -1.7841    1.5754 H   0  0  0  0  0  0  0  0  0  0  0  0
    1.4650   -3.6806    2.6359 H   0  0  0  0  0  0  0  0  0  0  0  0
   -0.9843   -3.9941    2.3992 H   0  0  0  0  0  0  0  0  0  0  0  0
   -2.3077   -2.4086    1.1040 H   0  0  0  0  0  0  0  0  0  0  0  0
   -2.6680   -1.5618   -2.1401 H   0  0  0  0  0  0  0  0  0  0  0  0
   -5.1101   -1.8783   -2.3818 H   0  0  0  0  0  0  0  0  0  0  0  0
   -5.7567    0.4872    1.1748 H   0  0  0  0  0  0  0  0  0  0  0  0
   -3.3125    0.7963    1.4053 H   0  0  0  0  0  0  0  0  0  0  0  0
   -2.5703    1.7842   -1.7323 H   0  0  0  0  0  0  0  0  0  0  0  0
   -1.4650    3.6806   -2.7927 H   0  0  0  0  0  0  0  0  0  0  0  0
    0.9843    3.9942   -2.5560 H   0  0  0  0  0  0  0  0  0  0  0  0
    2.3077    2.4086   -1.2609 H   0  0  0  0  0  0  0  0  0  0  0  0
    2.6680    1.5618    1.9832 H   0  0  0  0  0  0  0  0  0  0  0  0
    5.1102    1.8783    2.2250 H   0  0  0  0  0  0  0  0  0  0  0  0
  1  2  3  0
  2  3  1  0
  3  4  2  0
  4  5  1  0
  5  6  2  0
  6  7  1  0
  7  8  1  0
  8  9  2  0
  9 10  1  0
 10 11  2  0
 11 12  1  0
 12 13  2  0
 13 14  1  0
 14 15  1  0
 15 16  2  0
 16 17  1  0
 17 18  2  0
 18 19  1  0
 19 20  3  0
 18 21  1  0
 21 22  2  0
 14 23  1  0
 23 24  2  0
 24 25  1  0
 25 26  2  0
 26 27  1  0
 27 28  2  0
  6 29  1  0
 29 30  2  0
 30  3  1  0
 28  7  1  0
 13  8  1  0
 22 15  1  0
 28 23  1  0
  4 31  1  0
  5 32  1  0
  9 33  1  0
 10 34  1  0
 11 35  1  0
 12 36  1  0
 16 37  1  0
 17 38  1  0
 21 39  1  0
 22 40  1  0
 24 41  1  0
 25 42  1  0
 26 43  1  0
 27 44  1  0
 29 45  1  0
 30 46  1  0
M  END
