
     RDKit          3D

 27 29  0  0  0  0  0  0  0  0999 V2000
    1.4618    2.0103   -3.0137 N   0  0  0  0  0  0  0  0  0  0  0  0
    1.6352    0.9581   -2.5539 C   0  0  0  0  0  0  0  0  0  0  0  0
    1.8871   -0.3542   -2.0273 C   0  0  0  0  0  0  0  0  0  0  0  0
    2.9193   -1.1083   -2.6109 C   0  0  0  0  0  0  0  0  0  0  0  0
    3.2253   -2.3826   -2.1340 C   0  0  0  0  0  0  0  0  0  0  0  0
    2.5023   -2.9148   -1.0715 C   0  0  0  0  0  0  0  0  0  0  0  0
    1.4750   -2.1727   -0.4842 C   0  0  0  0  0  0  0  0  0  0  0  0
    1.1535   -0.8850   -0.9495 C   0  0  0  0  0  0  0  0  0  0  0  0
    0.0646   -0.1561   -0.2939 C   0  0  0  0  0  0  0  0  0  0  0  0
   -1.0582    0.4619   -0.8157 C   0  0  0  0  0  0  0  0  0  0  0  0
   -1.8041    1.0232    0.2571 C   0  0  0  0  0  0  0  0  0  0  0  0
   -3.0056    1.7523    0.3393 C   0  0  0  0  0  0  0  0  0  0  0  0
   -3.4707    2.1654    1.5932 C   0  0  0  0  0  0  0  0  0  0  0  0
   -2.7572    1.8620    2.7511 C   0  0  0  0  0  0  0  0  0  0  0  0
   -1.5614    1.1397    2.6929 C   0  0  0  0  0  0  0  0  0  0  0  0
   -1.1123    0.7343    1.4307 C   0  0  0  0  0  0  0  0  0  0  0  0
    0.0107    0.0264    1.0712 N   0  0  0  0  0  0  0  0  0  0  0  0
    3.4925   -0.7018   -3.4432 H   0  0  0  0  0  0  0  0  0  0  0  0
    4.0243   -2.9596   -2.5939 H   0  0  0  0  0  0  0  0  0  0  0  0
    2.7315   -3.9118   -0.7023 H   0  0  0  0  0  0  0  0  0  0  0  0
    0.9095   -2.6201    0.3314 H   0  0  0  0  0  0  0  0  0  0  0  0
   -1.3272    0.5069   -1.8636 H   0  0  0  0  0  0  0  0  0  0  0  0
   -3.5648    1.9953   -0.5592 H   0  0  0  0  0  0  0  0  0  0  0  0
   -4.3970    2.7305    1.6613 H   0  0  0  0  0  0  0  0  0  0  0  0
   -3.1348    2.1941    3.7156 H   0  0  0  0  0  0  0  0  0  0  0  0
   -1.0074    0.9078    3.5964 H   0  0  0  0  0  0  0  0  0  0  0  0
    0.7081   -0.3009    1.7241 H   0  0  0  0  0  0  0  0  0  0  0  0
  1  2  3  0
  2  3  1  0
  3  4  2  0
  4  5  1  0
  5  6  2  0
  6  7  1  0
  7  8  2  0
  8  9  1  0
  9 10  2  0
 10 11  1  0
 11 12  2  0
 12 13  1  0
 13 14  2  0
 14 15  1  0
 15 16  2  0
 16 17  1  0
  8  3  1  0
 17  9  1  0
 16 11  1  0
  4 18  1  0
  5 19  1  0
  6 20  1  0
  7 21  1  0
 10 22  1  0
 12 23  1  0
 13 24  1  0
 14 25  1  0
 15 26  1  0
 17 27  1  0
M  END
