
     RDKit          3D

 26 28  0  0  0  0  0  0  0  0999 V2000
    0.6534   -2.5241    2.7217 N   0  0  0  0  0  0  0  0  0  0  0  0
    1.2567   -1.6126    2.3306 C   0  0  0  0  0  0  0  0  0  0  0  0
    2.0379   -0.5050    1.8562 C   0  0  0  0  0  0  0  0  0  0  0  0
    3.3207   -0.3178    2.3964 C   0  0  0  0  0  0  0  0  0  0  0  0
    4.1189    0.7454    1.9738 C   0  0  0  0  0  0  0  0  0  0  0  0
    3.6430    1.6283    1.0091 C   0  0  0  0  0  0  0  0  0  0  0  0
    2.3687    1.4500    0.4665 C   0  0  0  0  0  0  0  0  0  0  0  0
    1.5488    0.3859    0.8826 C   0  0  0  0  0  0  0  0  0  0  0  0
    0.2212    0.2303    0.2777 C   0  0  0  0  0  0  0  0  0  0  0  0
   -0.2499   -0.7846   -0.5282 C   0  0  0  0  0  0  0  0  0  0  0  0
   -1.6162   -0.6015   -0.9285 C   0  0  0  0  0  0  0  0  0  0  0  0
   -2.4530   -1.4046   -1.7401 C   0  0  0  0  0  0  0  0  0  0  0  0
   -3.7719   -1.0185   -1.9970 C   0  0  0  0  0  0  0  0  0  0  0  0
   -4.2751    0.1572   -1.4578 C   0  0  0  0  0  0  0  0  0  0  0  0
   -3.4734    0.9692   -0.6523 C   0  0  0  0  0  0  0  0  0  0  0  0
   -2.1452    0.5761   -0.3962 C   0  0  0  0  0  0  0  0  0  0  0  0
   -0.9825    1.4090    0.5617 S   0  0  0  0  0  0  0  0  0  0  0  0
    3.7040   -1.0013    3.1528 H   0  0  0  0  0  0  0  0  0  0  0  0
    5.1109    0.8844    2.3975 H   0  0  0  0  0  0  0  0  0  0  0  0
    4.2629    2.4578    0.6763 H   0  0  0  0  0  0  0  0  0  0  0  0
    2.0175    2.1486   -0.2916 H   0  0  0  0  0  0  0  0  0  0  0  0
    0.3519   -1.6344   -0.8280 H   0  0  0  0  0  0  0  0  0  0  0  0
   -2.0710   -2.3296   -2.1651 H   0  0  0  0  0  0  0  0  0  0  0  0
   -4.4051   -1.6454   -2.6202 H   0  0  0  0  0  0  0  0  0  0  0  0
   -5.3028    0.4497   -1.6604 H   0  0  0  0  0  0  0  0  0  0  0  0
   -3.8704    1.8873   -0.2289 H   0  0  0  0  0  0  0  0  0  0  0  0
  1  2  3  0
  2  3  1  0
  3  4  2  0
  4  5  1  0
  5  6  2  0
  6  7  1  0
  7  8  2  0
  8  9  1  0
  9 10  2  0
 10 11  1  0
 11 12  2  0
 12 13  1  0
 13 14  2  0
 14 15  1  0
 15 16  2  0
 16 17  1  0
  8  3  1  0
 17  9  1  0
 16 11  1  0
  4 18  1  0
  5 19  1  0
  6 20  1  0
  7 21  1  0
 10 22  1  0
 12 23  1  0
 13 24  1  0
 14 25  1  0
 15 26  1  0
M  END
