
     RDKit          3D

 39 42  0  0  0  0  0  0  0  0999 V2000
   -3.8665    3.0202   -0.8149 N   0  0  0  0  0  0  0  0  0  0  0  0
   -4.0897    1.9255   -0.4989 C   0  0  0  0  0  0  0  0  0  0  0  0
   -4.4112    0.5816   -0.1045 C   0  0  0  0  0  0  0  0  0  0  0  0
   -5.7495    0.1659   -0.2017 C   0  0  0  0  0  0  0  0  0  0  0  0
   -6.1167   -1.1304    0.1575 C   0  0  0  0  0  0  0  0  0  0  0  0
   -5.1509   -2.0206    0.6153 C   0  0  0  0  0  0  0  0  0  0  0  0
   -3.8181   -1.6151    0.7146 C   0  0  0  0  0  0  0  0  0  0  0  0
   -3.4228   -0.3108    0.3598 C   0  0  0  0  0  0  0  0  0  0  0  0
   -2.0055    0.0637    0.4834 C   0  0  0  0  0  0  0  0  0  0  0  0
   -1.5749    0.9544    1.4666 C   0  0  0  0  0  0  0  0  0  0  0  0
   -0.2236    1.2984    1.5664 C   0  0  0  0  0  0  0  0  0  0  0  0
    0.7488    0.7699    0.6949 C   0  0  0  0  0  0  0  0  0  0  0  0
    0.3293   -0.1503   -0.2735 C   0  0  0  0  0  0  0  0  0  0  0  0
   -1.0413   -0.4796   -0.3771 C   0  0  0  0  0  0  0  0  0  0  0  0
    1.2805   -0.7755   -1.2601 C   0  0  0  0  0  0  0  0  0  0  0  0
    2.4828   -1.4187   -0.5820 C   0  0  0  0  0  0  0  0  0  0  0  0
    3.5732   -0.4248   -0.2809 C   0  0  0  0  0  0  0  0  0  0  0  0
    4.8863   -0.7416   -0.6896 C   0  0  0  0  0  0  0  0  0  0  0  0
    5.9514    0.1181   -0.4329 C   0  0  0  0  0  0  0  0  0  0  0  0
    5.7218    1.3059    0.2437 C   0  0  0  0  0  0  0  0  0  0  0  0
    4.4286    1.6218    0.6638 C   0  0  0  0  0  0  0  0  0  0  0  0
    3.3337    0.7667    0.4184 C   0  0  0  0  0  0  0  0  0  0  0  0
    2.0779    1.1813    0.8977 N   0  0  0  0  0  0  0  0  0  0  0  0
   -6.5136    0.8536   -0.5614 H   0  0  0  0  0  0  0  0  0  0  0  0
   -7.1548   -1.4449    0.0794 H   0  0  0  0  0  0  0  0  0  0  0  0
   -5.4322   -3.0325    0.8977 H   0  0  0  0  0  0  0  0  0  0  0  0
   -3.0780   -2.3258    1.0810 H   0  0  0  0  0  0  0  0  0  0  0  0
   -2.2830    1.3918    2.1671 H   0  0  0  0  0  0  0  0  0  0  0  0
    0.0682    1.9968    2.3479 H   0  0  0  0  0  0  0  0  0  0  0  0
   -1.3631   -1.1749   -1.1521 H   0  0  0  0  0  0  0  0  0  0  0  0
    0.7551   -1.5647   -1.8134 H   0  0  0  0  0  0  0  0  0  0  0  0
    1.5799   -0.0252   -2.0028 H   0  0  0  0  0  0  0  0  0  0  0  0
    2.2025   -1.9425    0.3407 H   0  0  0  0  0  0  0  0  0  0  0  0
    2.8745   -2.1840   -1.2647 H   0  0  0  0  0  0  0  0  0  0  0  0
    5.0854   -1.6718   -1.2182 H   0  0  0  0  0  0  0  0  0  0  0  0
    6.9542   -0.1416   -0.7605 H   0  0  0  0  0  0  0  0  0  0  0  0
    6.5429    1.9870    0.4487 H   0  0  0  0  0  0  0  0  0  0  0  0
    4.2793    2.5602    1.1930 H   0  0  0  0  0  0  0  0  0  0  0  0
    2.1389    2.0123    1.4755 H   0  0  0  0  0  0  0  0  0  0  0  0
  1  2  3  0
  2  3  1  0
  3  4  2  0
  4  5  1  0
  5  6  2  0
  6  7  1  0
  7  8  2  0
  8  9  1  0
  9 10  2  0
 10 11  1  0
 11 12  2  0
 12 13  1  0
 13 14  2  0
 13 15  1  0
 15 16  1  0
 16 17  1  0
 17 18  2  0
 18 19  1  0
 19 20  2  0
 20 21  1  0
 21 22  2  0
 22 23  1  0
  8  3  1  0
 14  9  1  0
 22 17  1  0
 23 12  1  0
  4 24  1  0
  5 25  1  0
  6 26  1  0
  7 27  1  0
 10 28  1  0
 11 29  1  0
 14 30  1  0
 15 31  1  0
 15 32  1  0
 16 33  1  0
 16 34  1  0
 18 35  1  0
 19 36  1  0
 20 37  1  0
 21 38  1  0
 23 39  1  0
M  END
