
     RDKit          3D

 33 36  0  0  0  0  0  0  0  0999 V2000
    3.0543   -1.7778   -2.5887 N   0  0  0  0  0  0  0  0  0  0  0  0
    3.3485   -1.1477   -1.6591 C   0  0  0  0  0  0  0  0  0  0  0  0
    3.7499   -0.3763   -0.5152 C   0  0  0  0  0  0  0  0  0  0  0  0
    5.0954    0.0149   -0.4191 C   0  0  0  0  0  0  0  0  0  0  0  0
    5.5362    0.7742    0.6641 C   0  0  0  0  0  0  0  0  0  0  0  0
    4.6373    1.1488    1.6575 C   0  0  0  0  0  0  0  0  0  0  0  0
    3.2977    0.7638    1.5692 C   0  0  0  0  0  0  0  0  0  0  0  0
    2.8292   -0.0051    0.4866 C   0  0  0  0  0  0  0  0  0  0  0  0
    1.4079   -0.3840    0.4423 C   0  0  0  0  0  0  0  0  0  0  0  0
    1.0066   -1.7120    0.6700 C   0  0  0  0  0  0  0  0  0  0  0  0
   -0.3446   -2.0688    0.6339 C   0  0  0  0  0  0  0  0  0  0  0  0
   -1.3088   -1.0990    0.3739 C   0  0  0  0  0  0  0  0  0  0  0  0
   -0.9278    0.2216    0.1502 C   0  0  0  0  0  0  0  0  0  0  0  0
    0.4203    0.5808    0.1841 C   0  0  0  0  0  0  0  0  0  0  0  0
   -1.8407    1.2135   -0.1081 O   0  0  0  0  0  0  0  0  0  0  0  0
   -3.1535    0.8151   -0.1356 C   0  0  0  0  0  0  0  0  0  0  0  0
   -4.1176    1.7872   -0.3988 C   0  0  0  0  0  0  0  0  0  0  0  0
   -5.4670    1.4314   -0.4372 C   0  0  0  0  0  0  0  0  0  0  0  0
   -5.8484    0.1067   -0.2129 C   0  0  0  0  0  0  0  0  0  0  0  0
   -4.8812   -0.8650    0.0505 C   0  0  0  0  0  0  0  0  0  0  0  0
   -3.5343   -0.5073    0.0884 C   0  0  0  0  0  0  0  0  0  0  0  0
   -2.6212   -1.4974    0.3511 O   0  0  0  0  0  0  0  0  0  0  0  0
    5.8073   -0.2699   -1.1925 H   0  0  0  0  0  0  0  0  0  0  0  0
    6.5795    1.0738    0.7318 H   0  0  0  0  0  0  0  0  0  0  0  0
    4.9767    1.7409    2.5044 H   0  0  0  0  0  0  0  0  0  0  0  0
    2.6116    1.0638    2.3605 H   0  0  0  0  0  0  0  0  0  0  0  0
    1.7473   -2.4820    0.8791 H   0  0  0  0  0  0  0  0  0  0  0  0
   -0.6409   -3.0997    0.8069 H   0  0  0  0  0  0  0  0  0  0  0  0
    0.6972    1.6168    0.0026 H   0  0  0  0  0  0  0  0  0  0  0  0
   -3.8194    2.8169   -0.5742 H   0  0  0  0  0  0  0  0  0  0  0  0
   -6.2216    2.1865   -0.6432 H   0  0  0  0  0  0  0  0  0  0  0  0
   -6.8997   -0.1689   -0.2442 H   0  0  0  0  0  0  0  0  0  0  0  0
   -5.1761   -1.8960    0.2241 H   0  0  0  0  0  0  0  0  0  0  0  0
  1  2  3  0
  2  3  1  0
  3  4  2  0
  4  5  1  0
  5  6  2  0
  6  7  1  0
  7  8  2  0
  8  9  1  0
  9 10  2  0
 10 11  1  0
 11 12  2  0
 12 13  1  0
 13 14  2  0
 13 15  1  0
 15 16  1  0
 16 17  2  0
 17 18  1  0
 18 19  2  0
 19 20  1  0
 20 21  2  0
 21 22  1  0
  8  3  1  0
 14  9  1  0
 21 16  1  0
 22 12  1  0
  4 23  1  0
  5 24  1  0
  6 25  1  0
  7 26  1  0
 10 27  1  0
 11 28  1  0
 14 29  1  0
 17 30  1  0
 18 31  1  0
 19 32  1  0
 20 33  1  0
M  END
