
     RDKit          3D

 40 46  0  0  0  0  0  0  0  0999 V2000
    1.6304   -0.5485    0.0660 Si  0  0  0  0  0  4  0  0  0  0  0  0
    2.5304    1.0881   -0.1158 C   0  0  0  0  0  0  0  0  0  0  0  0
    1.6446    2.1032   -0.1966 C   0  0  0  0  0  0  0  0  0  0  0  0
    0.2322    1.6911   -0.1246 C   0  0  0  0  0  0  0  0  0  0  0  0
   -0.8339    2.5532   -0.1863 C   0  0  0  0  0  0  0  0  0  0  0  0
   -2.1176    2.1434   -0.1173 N   0  0  0  0  0  0  0  0  0  0  0  0
   -2.4394    0.8338    0.0193 C   0  0  0  0  0  0  0  0  0  0  0  0
   -3.8393    0.5235    0.0811 C   0  0  0  0  0  0  0  0  0  0  0  0
   -4.7495    1.5265    0.0020 N   0  0  0  0  0  0  0  0  0  0  0  0
   -6.0762    1.2701    0.0568 C   0  0  0  0  0  0  0  0  0  0  0  0
   -6.6122    0.0097    0.1933 C   0  0  0  0  0  0  0  0  0  0  0  0
   -5.7297   -1.0520    0.2788 C   0  0  0  0  0  0  0  0  0  0  0  0
   -4.3348   -0.8053    0.2235 C   0  0  0  0  0  0  0  0  0  0  0  0
   -3.3137   -1.7819    0.2974 C   0  0  0  0  0  0  0  0  0  0  0  0
   -3.5647   -3.1288    0.4362 C   0  0  0  0  0  0  0  0  0  0  0  0
   -2.1213   -4.0428    0.4946 S   0  0  0  0  0  0  0  0  0  0  0  0
   -1.1565   -2.6322    0.3337 C   0  0  0  0  0  0  0  0  0  0  0  0
   -1.9033   -1.4798    0.2363 C   0  0  0  0  0  0  0  0  0  0  0  0
   -1.3802   -0.1502    0.0932 C   0  0  0  0  0  0  0  0  0  0  0  0
   -0.0323    0.3145    0.0174 C   0  0  0  0  0  0  0  0  0  0  0  0
    3.9498    1.2147   -0.1597 C   0  0  0  0  0  0  0  0  0  0  0  0
    4.7254    2.8011   -0.3341 S   0  0  0  0  0  0  0  0  0  0  0  0
    6.3311    2.1808   -0.3081 C   0  0  0  0  0  0  0  0  0  0  0  0
    6.2460    0.8492   -0.1742 C   0  0  0  0  0  0  0  0  0  0  0  0
    7.3003   -0.0085   -0.1124 O   0  0  0  0  0  0  0  0  0  0  0  0
    6.6206   -1.2009    0.0208 C   0  0  0  0  0  0  0  0  0  0  0  0
    5.2272   -1.0652    0.0381 C   0  0  0  0  0  0  0  0  0  0  0  0
    4.9782    0.3204   -0.0937 C   0  0  0  0  0  0  0  0  0  0  0  0
    1.8298   -1.4535   -1.0949 H   0  0  0  0  0  0  0  0  0  0  0  0
    1.8844   -1.2096    1.3717 H   0  0  0  0  0  0  0  0  0  0  0  0
    1.8883    3.1525   -0.3058 H   0  0  0  0  0  0  0  0  0  0  0  0
   -0.7026    3.6254   -0.2952 H   0  0  0  0  0  0  0  0  0  0  0  0
   -6.7134    2.1472   -0.0158 H   0  0  0  0  0  0  0  0  0  0  0  0
   -7.6846   -0.1395    0.2319 H   0  0  0  0  0  0  0  0  0  0  0  0
   -6.1252   -2.0564    0.3869 H   0  0  0  0  0  0  0  0  0  0  0  0
   -4.5096   -3.6483    0.5085 H   0  0  0  0  0  0  0  0  0  0  0  0
   -0.0919   -2.7855    0.3253 H   0  0  0  0  0  0  0  0  0  0  0  0
    7.2176    2.7924   -0.3883 H   0  0  0  0  0  0  0  0  0  0  0  0
    7.2650   -2.0676    0.0925 H   0  0  0  0  0  0  0  0  0  0  0  0
    4.5307   -1.8842    0.1347 H   0  0  0  0  0  0  0  0  0  0  0  0
  1  2  1  0
  2  3  2  0
  3  4  1  0
  4  5  2  0
  5  6  1  0
  6  7  2  0
  7  8  1  0
  8  9  2  0
  9 10  1  0
 10 11  2  0
 11 12  1  0
 12 13  2  0
 13 14  1  0
 14 15  2  0
 15 16  1  0
 16 17  1  0
 17 18  2  0
 18 19  1  0
 19 20  2  0
  2 21  1  0
 21 22  1  0
 22 23  1  0
 23 24  2  0
 24 25  1  0
 25 26  1  0
 26 27  2  0
 27 28  1  0
 20  1  1  0
 28 21  2  0
 20  4  1  0
 28 24  1  0
 19  7  1  0
 13  8  1  0
 18 14  1  0
  1 29  1  0
  1 30  1  0
  3 31  1  0
  5 32  1  0
 10 33  1  0
 11 34  1  0
 12 35  1  0
 15 36  1  0
 17 37  1  0
 23 38  1  0
 26 39  1  0
 27 40  1  0
M  END
