
     RDKit          3D

 44 51  0  0  0  0  0  0  0  0999 V2000
   -5.8873    0.1077   -1.4593 Si  0  0  0  0  0  4  0  0  0  0  0  0
   -7.0960    0.0951   -0.0250 C   0  0  0  0  0  0  0  0  0  0  0  0
   -6.4873   -0.0233    1.1663 C   0  0  0  0  0  0  0  0  0  0  0  0
   -5.0218   -0.1114    1.0804 C   0  0  0  0  0  0  0  0  0  0  0  0
   -4.1964   -0.2744    2.1725 C   0  0  0  0  0  0  0  0  0  0  0  0
   -2.8094   -0.3405    1.9799 C   0  0  0  0  0  0  0  0  0  0  0  0
   -2.1688   -0.2192    0.7175 C   0  0  0  0  0  0  0  0  0  0  0  0
   -3.0537   -0.1420   -0.4108 C   0  0  0  0  0  0  0  0  0  0  0  0
   -4.4624   -0.0582   -0.2142 C   0  0  0  0  0  0  0  0  0  0  0  0
   -2.4277   -0.1914   -1.7094 C   0  0  0  0  0  0  0  0  0  0  0  0
   -3.0592   -0.1446   -2.8980 N   0  0  0  0  0  0  0  0  0  0  0  0
   -1.9193   -0.2883   -4.0807 S   0  0  0  0  0  0  0  0  0  0  0  0
   -0.5588   -0.4126   -3.1575 N   0  0  0  0  0  0  0  0  0  0  0  0
   -0.9390   -0.3347   -1.8665 C   0  0  0  0  0  0  0  0  0  0  0  0
   -0.0626   -0.3683   -0.7392 C   0  0  0  0  0  0  0  0  0  0  0  0
    1.3534   -0.5185   -0.9922 C   0  0  0  0  0  0  0  0  0  0  0  0
    2.3360   -0.5045    0.0083 C   0  0  0  0  0  0  0  0  0  0  0  0
    3.7555   -0.6569   -0.2618 C   0  0  0  0  0  0  0  0  0  0  0  0
    4.3442   -2.1929   -0.7823 S   0  0  0  0  0  0  0  0  0  0  0  0
    5.9634   -1.6353   -0.8892 C   0  0  0  0  0  0  0  0  0  0  0  0
    6.0585   -0.3125   -0.5431 C   0  0  0  0  0  0  0  0  0  0  0  0
    7.2360    0.3717   -0.5465 N   0  0  0  0  0  0  0  0  0  0  0  0
    7.0399    1.6646   -0.1659 C   0  0  0  0  0  0  0  0  0  0  0  0
    5.8050    2.2244    0.1856 C   0  0  0  0  0  0  0  0  0  0  0  0
    4.6174    1.5593    0.1997 N   0  0  0  0  0  0  0  0  0  0  0  0
    4.7831    0.2588   -0.1809 C   0  0  0  0  0  0  0  0  0  0  0  0
    1.7880   -0.2565    1.2719 C   0  0  0  0  0  0  0  0  0  0  0  0
    2.5579   -0.1273    2.4070 C   0  0  0  0  0  0  0  0  0  0  0  0
    1.6200    0.2994    3.7688 S   0  0  0  0  0  0  0  0  0  0  0  0
    0.1757    0.3082    2.8433 C   0  0  0  0  0  0  0  0  0  0  0  0
    0.3580   -0.1069    1.5410 C   0  0  0  0  0  0  0  0  0  0  0  0
   -0.6987   -0.2284    0.5561 C   0  0  0  0  0  0  0  0  0  0  0  0
   -5.9109    1.4205   -2.1534 H   0  0  0  0  0  0  0  0  0  0  0  0
   -6.0771   -1.0967   -2.3072 H   0  0  0  0  0  0  0  0  0  0  0  0
   -8.1583    0.1744   -0.1965 H   0  0  0  0  0  0  0  0  0  0  0  0
   -7.0035   -0.0539    2.1167 H   0  0  0  0  0  0  0  0  0  0  0  0
   -4.6075   -0.3686    3.1739 H   0  0  0  0  0  0  0  0  0  0  0  0
   -2.2335   -0.5588    2.8728 H   0  0  0  0  0  0  0  0  0  0  0  0
    1.6876   -0.6397   -2.0253 H   0  0  0  0  0  0  0  0  0  0  0  0
    6.7586   -2.2974   -1.1996 H   0  0  0  0  0  0  0  0  0  0  0  0
    7.9387    2.2749   -0.1475 H   0  0  0  0  0  0  0  0  0  0  0  0
    5.7441    3.2695    0.4769 H   0  0  0  0  0  0  0  0  0  0  0  0
    3.6297   -0.2166    2.5181 H   0  0  0  0  0  0  0  0  0  0  0  0
   -0.7116    0.6515    3.3483 H   0  0  0  0  0  0  0  0  0  0  0  0
  1  2  1  0
  2  3  2  0
  3  4  1  0
  4  5  2  0
  5  6  1  0
  6  7  2  0
  7  8  1  0
  8  9  2  0
  8 10  1  0
 10 11  2  0
 11 12  1  0
 12 13  1  0
 13 14  2  0
 14 15  1  0
 15 16  1  0
 16 17  2  0
 17 18  1  0
 18 19  1  0
 19 20  1  0
 20 21  2  0
 21 22  1  0
 22 23  2  0
 23 24  1  0
 24 25  2  0
 25 26  1  0
 17 27  1  0
 27 28  2  0
 28 29  1  0
 29 30  1  0
 30 31  2  0
 31 32  1  0
  9  1  1  0
 14 10  1  0
 32 15  2  0
  9  4  1  0
 26 18  2  0
 31 27  1  0
 32  7  1  0
 26 21  1  0
  1 33  1  0
  1 34  1  0
  2 35  1  0
  3 36  1  0
  5 37  1  0
  6 38  1  0
 16 39  1  0
 20 40  1  0
 23 41  1  0
 24 42  1  0
 28 43  1  0
 30 44  1  0
M  END
