
     RDKit          3D

 30 33  0  0  0  0  0  0  0  0999 V2000
   -2.3273   -0.9875   -2.4320 N   0  0  0  0  0  0  0  0  0  0  0  0
   -2.4276   -1.2593   -1.3081 C   0  0  0  0  0  0  0  0  0  0  0  0
   -2.5750   -1.5769    0.0854 C   0  0  0  0  0  0  0  0  0  0  0  0
   -3.8441   -1.9706    0.5407 C   0  0  0  0  0  0  0  0  0  0  0  0
   -4.0453   -2.2985    1.8805 C   0  0  0  0  0  0  0  0  0  0  0  0
   -2.9820   -2.2354    2.7745 C   0  0  0  0  0  0  0  0  0  0  0  0
   -1.7166   -1.8451    2.3299 C   0  0  0  0  0  0  0  0  0  0  0  0
   -1.4860   -1.5083    0.9812 C   0  0  0  0  0  0  0  0  0  0  0  0
   -0.1318   -1.1070    0.5670 C   0  0  0  0  0  0  0  0  0  0  0  0
    0.9411   -1.9944    0.6339 C   0  0  0  0  0  0  0  0  0  0  0  0
    2.2228   -1.7300    0.2988 N   0  0  0  0  0  0  0  0  0  0  0  0
    2.4268   -0.4731   -0.1473 C   0  0  0  0  0  0  0  0  0  0  0  0
    3.9797    0.0345   -0.6178 S   0  0  0  0  0  0  0  0  0  0  0  0
    3.4132    1.5897   -1.0080 C   0  0  0  0  0  0  0  0  0  0  0  0
    4.2606    2.5301   -1.4783 N   0  0  0  0  0  0  0  0  0  0  0  0
    3.6761    3.7130   -1.7510 C   0  0  0  0  0  0  0  0  0  0  0  0
    2.3337    4.0017   -1.5820 C   0  0  0  0  0  0  0  0  0  0  0  0
    1.4938    3.0052   -1.0905 C   0  0  0  0  0  0  0  0  0  0  0  0
    2.0472    1.7411   -0.7868 C   0  0  0  0  0  0  0  0  0  0  0  0
    1.4667    0.5246   -0.2751 C   0  0  0  0  0  0  0  0  0  0  0  0
    0.1461    0.1863    0.1045 C   0  0  0  0  0  0  0  0  0  0  0  0
   -4.6842   -2.0259   -0.1505 H   0  0  0  0  0  0  0  0  0  0  0  0
   -5.0308   -2.6031    2.2259 H   0  0  0  0  0  0  0  0  0  0  0  0
   -3.1352   -2.4886    3.8214 H   0  0  0  0  0  0  0  0  0  0  0  0
   -0.9032   -1.7965    3.0538 H   0  0  0  0  0  0  0  0  0  0  0  0
    0.7873   -3.0153    0.9819 H   0  0  0  0  0  0  0  0  0  0  0  0
    4.3544    4.4725   -2.1339 H   0  0  0  0  0  0  0  0  0  0  0  0
    1.9457    4.9840   -1.8298 H   0  0  0  0  0  0  0  0  0  0  0  0
    0.4347    3.1998   -0.9501 H   0  0  0  0  0  0  0  0  0  0  0  0
   -0.6406    0.9330    0.0347 H   0  0  0  0  0  0  0  0  0  0  0  0
  1  2  3  0
  2  3  1  0
  3  4  2  0
  4  5  1  0
  5  6  2  0
  6  7  1  0
  7  8  2  0
  8  9  1  0
  9 10  2  0
 10 11  1  0
 11 12  2  0
 12 13  1  0
 13 14  1  0
 14 15  2  0
 15 16  1  0
 16 17  2  0
 17 18  1  0
 18 19  2  0
 19 20  1  0
 20 21  2  0
  8  3  1  0
 21  9  1  0
 20 12  1  0
 19 14  1  0
  4 22  1  0
  5 23  1  0
  6 24  1  0
  7 25  1  0
 10 26  1  0
 16 27  1  0
 17 28  1  0
 18 29  1  0
 21 30  1  0
M  END
