
     RDKit          3D

 27 30  0  0  0  0  0  0  0  0999 V2000
   -2.6014    2.0239   -2.4967 N   0  0  0  0  0  0  0  0  0  0  0  0
   -2.6697    1.0159   -1.9242 C   0  0  0  0  0  0  0  0  0  0  0  0
   -2.8503   -0.2444   -1.2551 C   0  0  0  0  0  0  0  0  0  0  0  0
   -4.0764   -0.9049   -1.4614 C   0  0  0  0  0  0  0  0  0  0  0  0
   -4.3391   -2.1309   -0.8532 C   0  0  0  0  0  0  0  0  0  0  0  0
   -3.3798   -2.7101   -0.0324 C   0  0  0  0  0  0  0  0  0  0  0  0
   -2.1593   -2.0630    0.1792 C   0  0  0  0  0  0  0  0  0  0  0  0
   -1.8685   -0.8216   -0.4246 C   0  0  0  0  0  0  0  0  0  0  0  0
   -0.5755   -0.1753   -0.1770 C   0  0  0  0  0  0  0  0  0  0  0  0
   -0.1070    0.9697   -0.6376 N   0  0  0  0  0  0  0  0  0  0  0  0
    1.1407    1.0737   -0.0846 C   0  0  0  0  0  0  0  0  0  0  0  0
    2.1268    2.0572   -0.1923 C   0  0  0  0  0  0  0  0  0  0  0  0
    3.3070    1.8578    0.5107 C   0  0  0  0  0  0  0  0  0  0  0  0
    4.4039    2.6660    0.5637 O   0  0  0  0  0  0  0  0  0  0  0  0
    5.2553    1.9930    1.3905 C   0  0  0  0  0  0  0  0  0  0  0  0
    4.8070    0.8480    1.8612 N   0  0  0  0  0  0  0  0  0  0  0  0
    3.5579    0.7464    1.3061 C   0  0  0  0  0  0  0  0  0  0  0  0
    2.5703   -0.2364    1.4125 C   0  0  0  0  0  0  0  0  0  0  0  0
    1.3908   -0.0355    0.7090 C   0  0  0  0  0  0  0  0  0  0  0  0
    0.2948   -0.8426    0.6558 O   0  0  0  0  0  0  0  0  0  0  0  0
   -4.8368   -0.4602   -2.1032 H   0  0  0  0  0  0  0  0  0  0  0  0
   -5.2902   -2.6312   -1.0204 H   0  0  0  0  0  0  0  0  0  0  0  0
   -3.5774   -3.6670    0.4460 H   0  0  0  0  0  0  0  0  0  0  0  0
   -1.4305   -2.5466    0.8288 H   0  0  0  0  0  0  0  0  0  0  0  0
    1.9728    2.9401   -0.8018 H   0  0  0  0  0  0  0  0  0  0  0  0
    6.2113    2.4615    1.5793 H   0  0  0  0  0  0  0  0  0  0  0  0
    2.7233   -1.1192    2.0215 H   0  0  0  0  0  0  0  0  0  0  0  0
  1  2  3  0
  2  3  1  0
  3  4  2  0
  4  5  1  0
  5  6  2  0
  6  7  1  0
  7  8  2  0
  8  9  1  0
  9 10  2  0
 10 11  1  0
 11 12  2  0
 12 13  1  0
 13 14  1  0
 14 15  1  0
 15 16  2  0
 16 17  1  0
 17 18  1  0
 18 19  2  0
 19 20  1  0
  8  3  1  0
 20  9  1  0
 19 11  1  0
 17 13  2  0
  4 21  1  0
  5 22  1  0
  6 23  1  0
  7 24  1  0
 12 25  1  0
 15 26  1  0
 18 27  1  0
M  END
