
     RDKit          3D

 27 30  0  0  0  0  0  0  0  0999 V2000
   -0.0278    3.7781   -0.5331 N   0  0  0  0  0  0  0  0  0  0  0  0
   -0.9714    3.1521   -0.2791 C   0  0  0  0  0  0  0  0  0  0  0  0
   -2.0622    2.2919    0.0586 C   0  0  0  0  0  0  0  0  0  0  0  0
   -3.3282    2.8882    0.2111 C   0  0  0  0  0  0  0  0  0  0  0  0
   -4.4426    2.1182    0.5355 C   0  0  0  0  0  0  0  0  0  0  0  0
   -4.3012    0.7480    0.7086 C   0  0  0  0  0  0  0  0  0  0  0  0
   -3.0460    0.1517    0.5585 C   0  0  0  0  0  0  0  0  0  0  0  0
   -1.8965    0.9029    0.2339 C   0  0  0  0  0  0  0  0  0  0  0  0
   -0.6241    0.1526    0.1002 C   0  0  0  0  0  0  0  0  0  0  0  0
   -0.5458   -1.1745    0.1291 N   0  0  0  0  0  0  0  0  0  0  0  0
    0.7756   -1.4854   -0.0133 C   0  0  0  0  0  0  0  0  0  0  0  0
    1.3385   -2.7175   -0.0435 N   0  0  0  0  0  0  0  0  0  0  0  0
    2.6855   -2.7123   -0.1960 C   0  0  0  0  0  0  0  0  0  0  0  0
    3.5255   -3.7911   -0.2624 N   0  0  0  0  0  0  0  0  0  0  0  0
    4.7272   -3.2709   -0.4124 C   0  0  0  0  0  0  0  0  0  0  0  0
    4.6994   -1.9007   -0.4452 N   0  0  0  0  0  0  0  0  0  0  0  0
    3.3990   -1.5219   -0.3076 C   0  0  0  0  0  0  0  0  0  0  0  0
    2.8770   -0.2784   -0.2807 N   0  0  0  0  0  0  0  0  0  0  0  0
    1.5375   -0.3330   -0.1292 C   0  0  0  0  0  0  0  0  0  0  0  0
    0.6436    0.6914   -0.0547 N   0  0  0  0  0  0  0  0  0  0  0  0
   -3.4525    3.9620    0.0751 H   0  0  0  0  0  0  0  0  0  0  0  0
   -5.4179    2.5852    0.6507 H   0  0  0  0  0  0  0  0  0  0  0  0
   -5.1639    0.1348    0.9595 H   0  0  0  0  0  0  0  0  0  0  0  0
   -2.9679   -0.9277    0.6990 H   0  0  0  0  0  0  0  0  0  0  0  0
    5.6491   -3.8311   -0.5024 H   0  0  0  0  0  0  0  0  0  0  0  0
    5.4859   -1.2778   -0.5513 H   0  0  0  0  0  0  0  0  0  0  0  0
    0.9041    1.6654   -0.1073 H   0  0  0  0  0  0  0  0  0  0  0  0
  1  2  3  0
  2  3  1  0
  3  4  2  0
  4  5  1  0
  5  6  2  0
  6  7  1  0
  7  8  2  0
  8  9  1  0
  9 10  2  0
 10 11  1  0
 11 12  2  0
 12 13  1  0
 13 14  1  0
 14 15  2  0
 15 16  1  0
 16 17  1  0
 17 18  1  0
 18 19  2  0
 19 20  1  0
  8  3  1  0
 20  9  1  0
 19 11  1  0
 17 13  2  0
  4 21  1  0
  5 22  1  0
  6 23  1  0
  7 24  1  0
 15 25  1  0
 16 26  1  0
 20 27  1  0
M  END
