
     RDKit          3D

 36 38  0  0  0  0  0  0  0  0999 V2000
   -5.7754   -2.4151    2.4272 N   0  0  0  0  0  0  0  0  0  0  0  0
   -4.8779   -1.7777    2.0569 C   0  0  0  0  0  0  0  0  0  0  0  0
   -3.7744   -0.9851    1.6118 C   0  0  0  0  0  0  0  0  0  0  0  0
   -2.4607   -1.1853    1.9738 C   0  0  0  0  0  0  0  0  0  0  0  0
   -1.6999   -0.2293    1.3477 N   0  0  0  0  0  0  0  0  0  0  0  0
   -0.2603   -0.0971    1.5111 C   0  0  0  0  0  0  0  0  0  0  0  0
    0.4945   -0.8873    0.4625 C   0  0  0  0  0  0  0  0  0  0  0  0
    0.5528   -2.1149    0.4837 O   0  0  0  0  0  0  0  0  0  0  0  0
    1.1091   -0.1259   -0.5116 N   0  0  0  0  0  0  0  0  0  0  0  0
    1.9404   -0.7311   -1.5300 C   0  0  0  0  0  0  0  0  0  0  0  0
    3.3908   -0.6410   -1.1561 C   0  0  0  0  0  0  0  0  0  0  0  0
    4.2071    0.3994   -1.6105 C   0  0  0  0  0  0  0  0  0  0  0  0
    5.5418    0.4510   -1.2175 C   0  0  0  0  0  0  0  0  0  0  0  0
    6.0168   -0.5389   -0.3733 C   0  0  0  0  0  0  0  0  0  0  0  0
    5.2576   -1.5521    0.0941 N   0  0  0  0  0  0  0  0  0  0  0  0
    3.9654   -1.5820   -0.3063 C   0  0  0  0  0  0  0  0  0  0  0  0
   -2.5047    0.5960    0.5845 C   0  0  0  0  0  0  0  0  0  0  0  0
   -2.1976    1.7036   -0.2239 C   0  0  0  0  0  0  0  0  0  0  0  0
   -3.2459    2.3459   -0.8910 C   0  0  0  0  0  0  0  0  0  0  0  0
   -4.5579    1.9038   -0.7580 C   0  0  0  0  0  0  0  0  0  0  0  0
   -4.8574    0.8021    0.0503 C   0  0  0  0  0  0  0  0  0  0  0  0
   -3.8193    0.1341    0.7343 C   0  0  0  0  0  0  0  0  0  0  0  0
   -2.0079   -1.9347    2.6122 H   0  0  0  0  0  0  0  0  0  0  0  0
    0.0120   -0.4741    2.5033 H   0  0  0  0  0  0  0  0  0  0  0  0
   -0.0025    0.9659    1.4843 H   0  0  0  0  0  0  0  0  0  0  0  0
    1.1667    0.8780   -0.4037 H   0  0  0  0  0  0  0  0  0  0  0  0
    1.6516   -1.7747   -1.6998 H   0  0  0  0  0  0  0  0  0  0  0  0
    1.7539   -0.1892   -2.4638 H   0  0  0  0  0  0  0  0  0  0  0  0
    3.8133    1.1651   -2.2734 H   0  0  0  0  0  0  0  0  0  0  0  0
    6.1974    1.2423   -1.5632 H   0  0  0  0  0  0  0  0  0  0  0  0
    7.0511   -0.5437   -0.0399 H   0  0  0  0  0  0  0  0  0  0  0  0
    3.3822   -2.4108    0.0925 H   0  0  0  0  0  0  0  0  0  0  0  0
   -1.1820    2.0638   -0.3417 H   0  0  0  0  0  0  0  0  0  0  0  0
   -3.0329    3.2043   -1.5252 H   0  0  0  0  0  0  0  0  0  0  0  0
   -5.3603    2.4157   -1.2861 H   0  0  0  0  0  0  0  0  0  0  0  0
   -5.8876    0.4664    0.1450 H   0  0  0  0  0  0  0  0  0  0  0  0
  1  2  3  0
  2  3  1  0
  3  4  2  0
  4  5  1  0
  5  6  1  0
  6  7  1  0
  7  8  2  0
  7  9  1  0
  9 10  1  0
 10 11  1  0
 11 12  2  0
 12 13  1  0
 13 14  2  0
 14 15  1  0
 15 16  2  0
  5 17  1  0
 17 18  2  0
 18 19  1  0
 19 20  2  0
 20 21  1  0
 21 22  2  0
 22  3  1  0
 16 11  1  0
 22 17  1  0
  4 23  1  0
  6 24  1  0
  6 25  1  0
  9 26  1  0
 10 27  1  0
 10 28  1  0
 12 29  1  0
 13 30  1  0
 14 31  1  0
 16 32  1  0
 18 33  1  0
 19 34  1  0
 20 35  1  0
 21 36  1  0
M  END
