
     RDKit          3D

 37 40  0  0  0  0  0  0  0  0999 V2000
    2.8619   -1.4140   -3.2521 N   0  0  0  0  0  0  0  0  0  0  0  0
    3.2836   -0.9643   -2.2689 C   0  0  0  0  0  0  0  0  0  0  0  0
    3.8438   -0.4359   -1.0707 C   0  0  0  0  0  0  0  0  0  0  0  0
    5.2147   -0.3421   -0.9372 C   0  0  0  0  0  0  0  0  0  0  0  0
    5.8339    0.1672    0.1472 N   0  0  0  0  0  0  0  0  0  0  0  0
    5.0267    0.6021    1.1228 C   0  0  0  0  0  0  0  0  0  0  0  0
    3.6870    0.5663    1.1018 N   0  0  0  0  0  0  0  0  0  0  0  0
    3.0970    0.0319   -0.0001 C   0  0  0  0  0  0  0  0  0  0  0  0
    1.6231    0.0217    0.0537 C   0  0  0  0  0  0  0  0  0  0  0  0
    0.9168    1.1983    0.3414 C   0  0  0  0  0  0  0  0  0  0  0  0
   -0.4888    1.2245    0.3781 C   0  0  0  0  0  0  0  0  0  0  0  0
   -1.2330    0.0504    0.1627 C   0  0  0  0  0  0  0  0  0  0  0  0
   -0.5291   -1.1406   -0.0948 C   0  0  0  0  0  0  0  0  0  0  0  0
    0.8769   -1.1464   -0.1555 C   0  0  0  0  0  0  0  0  0  0  0  0
   -1.2763   -2.4273   -0.3417 C   0  0  0  0  0  0  0  0  0  0  0  0
   -2.6624   -2.3862    0.2851 C   0  0  0  0  0  0  0  0  0  0  0  0
   -3.3842   -1.1217   -0.1531 C   0  0  0  0  0  0  0  0  0  0  0  0
   -2.6198    0.0657    0.2066 N   0  0  0  0  0  0  0  0  0  0  0  0
   -3.3345    1.2678    0.6164 C   0  0  0  0  0  0  0  0  0  0  0  0
   -2.6113    2.5196    0.1451 C   0  0  0  0  0  0  0  0  0  0  0  0
   -1.1889    2.5235    0.6865 C   0  0  0  0  0  0  0  0  0  0  0  0
    5.8864   -0.6798   -1.7239 H   0  0  0  0  0  0  0  0  0  0  0  0
    5.4963    1.0205    2.0065 H   0  0  0  0  0  0  0  0  0  0  0  0
    1.4692    2.1174    0.5337 H   0  0  0  0  0  0  0  0  0  0  0  0
    1.3829   -2.0902   -0.3514 H   0  0  0  0  0  0  0  0  0  0  0  0
   -1.3557   -2.5827   -1.4246 H   0  0  0  0  0  0  0  0  0  0  0  0
   -0.7225   -3.2747    0.0791 H   0  0  0  0  0  0  0  0  0  0  0  0
   -2.5771   -2.4025    1.3795 H   0  0  0  0  0  0  0  0  0  0  0  0
   -3.2346   -3.2726   -0.0100 H   0  0  0  0  0  0  0  0  0  0  0  0
   -4.3722   -1.0972    0.3218 H   0  0  0  0  0  0  0  0  0  0  0  0
   -3.5483   -1.1307   -1.2376 H   0  0  0  0  0  0  0  0  0  0  0  0
   -4.3486    1.2686    0.1995 H   0  0  0  0  0  0  0  0  0  0  0  0
   -3.4354    1.2727    1.7087 H   0  0  0  0  0  0  0  0  0  0  0  0
   -2.5924    2.5441   -0.9523 H   0  0  0  0  0  0  0  0  0  0  0  0
   -3.1438    3.4159    0.4815 H   0  0  0  0  0  0  0  0  0  0  0  0
   -0.6431    3.3641    0.2420 H   0  0  0  0  0  0  0  0  0  0  0  0
   -1.1983    2.6666    1.7738 H   0  0  0  0  0  0  0  0  0  0  0  0
  1  2  3  0
  2  3  1  0
  3  4  2  0
  4  5  1  0
  5  6  2  0
  6  7  1  0
  7  8  2  0
  8  9  1  0
  9 10  2  0
 10 11  1  0
 11 12  2  0
 12 13  1  0
 13 14  2  0
 13 15  1  0
 15 16  1  0
 16 17  1  0
 17 18  1  0
 18 19  1  0
 19 20  1  0
 20 21  1  0
  8  3  1  0
 14  9  1  0
 21 11  1  0
 18 12  1  0
  4 22  1  0
  6 23  1  0
 10 24  1  0
 14 25  1  0
 15 26  1  0
 15 27  1  0
 16 28  1  0
 16 29  1  0
 17 30  1  0
 17 31  1  0
 19 32  1  0
 19 33  1  0
 20 34  1  0
 20 35  1  0
 21 36  1  0
 21 37  1  0
M  END
