
     RDKit          3D

 24 26  0  0  0  0  0  0  0  0999 V2000
   -2.9216    1.0026   -2.3749 N   0  0  0  0  0  0  0  0  0  0  0  0
   -2.7435    0.0541   -1.7306 C   0  0  0  0  0  0  0  0  0  0  0  0
   -2.5732   -1.1237   -0.9495 C   0  0  0  0  0  0  0  0  0  0  0  0
   -3.5392   -2.1079   -0.9669 C   0  0  0  0  0  0  0  0  0  0  0  0
   -3.4812   -3.2344   -0.2258 N   0  0  0  0  0  0  0  0  0  0  0  0
   -2.4079   -3.3572    0.5661 C   0  0  0  0  0  0  0  0  0  0  0  0
   -1.4116   -2.4683    0.6710 N   0  0  0  0  0  0  0  0  0  0  0  0
   -1.5006   -1.3617   -0.1092 C   0  0  0  0  0  0  0  0  0  0  0  0
   -0.3618   -0.4557    0.0712 C   0  0  0  0  0  0  0  0  0  0  0  0
    0.1394    0.0566    1.2511 C   0  0  0  0  0  0  0  0  0  0  0  0
    1.2865    0.8981    1.0670 C   0  0  0  0  0  0  0  0  0  0  0  0
    2.0647    1.6139    2.0081 C   0  0  0  0  0  0  0  0  0  0  0  0
    3.1552    2.3808    1.5870 C   0  0  0  0  0  0  0  0  0  0  0  0
    3.4874    2.4460    0.2410 C   0  0  0  0  0  0  0  0  0  0  0  0
    2.7402    1.7467   -0.7096 C   0  0  0  0  0  0  0  0  0  0  0  0
    1.6423    0.9758   -0.2806 C   0  0  0  0  0  0  0  0  0  0  0  0
    0.5928    0.0285   -1.2615 S   0  0  0  0  0  0  0  0  0  0  0  0
   -4.4270   -2.0226   -1.5906 H   0  0  0  0  0  0  0  0  0  0  0  0
   -2.3404   -4.2521    1.1755 H   0  0  0  0  0  0  0  0  0  0  0  0
   -0.3002   -0.1594    2.2180 H   0  0  0  0  0  0  0  0  0  0  0  0
    1.8146    1.5700    3.0652 H   0  0  0  0  0  0  0  0  0  0  0  0
    3.7444    2.9277    2.3191 H   0  0  0  0  0  0  0  0  0  0  0  0
    4.3370    3.0448   -0.0790 H   0  0  0  0  0  0  0  0  0  0  0  0
    3.0038    1.7974   -1.7623 H   0  0  0  0  0  0  0  0  0  0  0  0
  1  2  3  0
  2  3  1  0
  3  4  2  0
  4  5  1  0
  5  6  2  0
  6  7  1  0
  7  8  2  0
  8  9  1  0
  9 10  2  0
 10 11  1  0
 11 12  2  0
 12 13  1  0
 13 14  2  0
 14 15  1  0
 15 16  2  0
 16 17  1  0
  8  3  1  0
 17  9  1  0
 16 11  1  0
  4 18  1  0
  6 19  1  0
 10 20  1  0
 12 21  1  0
 13 22  1  0
 14 23  1  0
 15 24  1  0
M  END
