
     RDKit          3D

 32 35  0  0  0  0  0  0  0  0999 V2000
   -1.5206   -4.2115    2.7465 N   0  0  0  0  0  0  0  0  0  0  0  0
   -2.1452   -3.2369    2.6689 C   0  0  0  0  0  0  0  0  0  0  0  0
   -2.9342   -2.0531    2.6025 C   0  0  0  0  0  0  0  0  0  0  0  0
   -4.2546   -2.0846    3.0039 C   0  0  0  0  0  0  0  0  0  0  0  0
   -5.0837   -1.0224    2.9509 N   0  0  0  0  0  0  0  0  0  0  0  0
   -4.5504    0.1051    2.4652 C   0  0  0  0  0  0  0  0  0  0  0  0
   -3.2868    0.2513    2.0411 N   0  0  0  0  0  0  0  0  0  0  0  0
   -2.4742   -0.8351    2.1248 C   0  0  0  0  0  0  0  0  0  0  0  0
   -1.0996   -0.5881    1.6478 C   0  0  0  0  0  0  0  0  0  0  0  0
    0.0268   -0.8957    2.4227 C   0  0  0  0  0  0  0  0  0  0  0  0
    1.3166   -0.6594    1.9370 C   0  0  0  0  0  0  0  0  0  0  0  0
    1.5150   -0.0914    0.6721 C   0  0  0  0  0  0  0  0  0  0  0  0
    0.4054    0.2657   -0.1070 C   0  0  0  0  0  0  0  0  0  0  0  0
   -0.8843   -0.0028    0.3856 C   0  0  0  0  0  0  0  0  0  0  0  0
    0.5367    0.8049   -1.3996 N   0  0  0  0  0  0  0  0  0  0  0  0
    1.7360    1.1826   -2.0308 C   0  0  0  0  0  0  0  0  0  0  0  0
    1.6742    1.7613   -3.3092 C   0  0  0  0  0  0  0  0  0  0  0  0
    2.8371    2.1119   -3.9977 C   0  0  0  0  0  0  0  0  0  0  0  0
    4.0808    1.8741   -3.4230 C   0  0  0  0  0  0  0  0  0  0  0  0
    4.1596    1.2798   -2.1635 C   0  0  0  0  0  0  0  0  0  0  0  0
    2.9957    0.9240   -1.4646 C   0  0  0  0  0  0  0  0  0  0  0  0
    3.1976    0.1581    0.1350 S   0  0  0  0  0  0  0  0  0  0  0  0
   -4.7097   -2.9943    3.3907 H   0  0  0  0  0  0  0  0  0  0  0  0
   -5.1954    0.9754    2.4085 H   0  0  0  0  0  0  0  0  0  0  0  0
   -0.0765   -1.3190    3.4200 H   0  0  0  0  0  0  0  0  0  0  0  0
    2.1698   -0.9240    2.5588 H   0  0  0  0  0  0  0  0  0  0  0  0
   -1.7485    0.2504   -0.2271 H   0  0  0  0  0  0  0  0  0  0  0  0
   -0.2991    1.2335   -1.7759 H   0  0  0  0  0  0  0  0  0  0  0  0
    0.7125    1.9421   -3.7823 H   0  0  0  0  0  0  0  0  0  0  0  0
    2.7701    2.5644   -4.9837 H   0  0  0  0  0  0  0  0  0  0  0  0
    4.9897    2.1429   -3.9550 H   0  0  0  0  0  0  0  0  0  0  0  0
    5.1392    1.0909   -1.7299 H   0  0  0  0  0  0  0  0  0  0  0  0
  1  2  3  0
  2  3  1  0
  3  4  2  0
  4  5  1  0
  5  6  2  0
  6  7  1  0
  7  8  2  0
  8  9  1  0
  9 10  2  0
 10 11  1  0
 11 12  2  0
 12 13  1  0
 13 14  2  0
 13 15  1  0
 15 16  1  0
 16 17  2  0
 17 18  1  0
 18 19  2  0
 19 20  1  0
 20 21  2  0
 21 22  1  0
  8  3  1  0
 14  9  1  0
 21 16  1  0
 22 12  1  0
  4 23  1  0
  6 24  1  0
 10 25  1  0
 11 26  1  0
 14 27  1  0
 15 28  1  0
 17 29  1  0
 18 30  1  0
 19 31  1  0
 20 32  1  0
M  END
