
     RDKit          3D

 32 35  0  0  0  0  0  0  0  0999 V2000
   -3.0551   -0.4389   -3.4650 N   0  0  0  0  0  0  0  0  0  0  0  0
   -3.4591   -0.3250   -2.3834 C   0  0  0  0  0  0  0  0  0  0  0  0
   -3.9941   -0.1866   -1.0709 C   0  0  0  0  0  0  0  0  0  0  0  0
   -5.3592   -0.2355   -0.8739 C   0  0  0  0  0  0  0  0  0  0  0  0
   -5.9529   -0.0777    0.3268 N   0  0  0  0  0  0  0  0  0  0  0  0
   -5.1273    0.1448    1.3571 C   0  0  0  0  0  0  0  0  0  0  0  0
   -3.7905    0.2186    1.2847 N   0  0  0  0  0  0  0  0  0  0  0  0
   -3.2270    0.0371    0.0621 C   0  0  0  0  0  0  0  0  0  0  0  0
   -1.7565    0.1179    0.0667 C   0  0  0  0  0  0  0  0  0  0  0  0
   -1.1087    1.2486    0.5692 C   0  0  0  0  0  0  0  0  0  0  0  0
    0.2865    1.3247    0.5818 C   0  0  0  0  0  0  0  0  0  0  0  0
    1.0913    0.2643    0.1006 C   0  0  0  0  0  0  0  0  0  0  0  0
    0.4341   -0.8860   -0.3913 C   0  0  0  0  0  0  0  0  0  0  0  0
   -0.9546   -0.9369   -0.3966 C   0  0  0  0  0  0  0  0  0  0  0  0
    1.0859   -1.9553   -0.8614 N   0  0  0  0  0  0  0  0  0  0  0  0
    2.4350   -1.9213   -0.8688 C   0  0  0  0  0  0  0  0  0  0  0  0
    3.2040   -0.8551   -0.4188 C   0  0  0  0  0  0  0  0  0  0  0  0
    4.6100   -0.9010   -0.4615 C   0  0  0  0  0  0  0  0  0  0  0  0
    5.3696    0.1729   -0.0068 C   0  0  0  0  0  0  0  0  0  0  0  0
    4.7313    1.2991    0.4933 C   0  0  0  0  0  0  0  0  0  0  0  0
    3.3340    1.3500    0.5377 C   0  0  0  0  0  0  0  0  0  0  0  0
    2.5270    0.2757    0.0834 C   0  0  0  0  0  0  0  0  0  0  0  0
   -6.0472   -0.4028   -1.7003 H   0  0  0  0  0  0  0  0  0  0  0  0
   -5.5781    0.2782    2.3348 H   0  0  0  0  0  0  0  0  0  0  0  0
   -1.6892    2.0825    0.9614 H   0  0  0  0  0  0  0  0  0  0  0  0
    0.7340    2.2299    0.9821 H   0  0  0  0  0  0  0  0  0  0  0  0
   -1.4179   -1.8504   -0.7678 H   0  0  0  0  0  0  0  0  0  0  0  0
    2.8984   -2.8208   -1.2670 H   0  0  0  0  0  0  0  0  0  0  0  0
    5.1216   -1.7787   -0.8517 H   0  0  0  0  0  0  0  0  0  0  0  0
    6.4549    0.1297   -0.0435 H   0  0  0  0  0  0  0  0  0  0  0  0
    5.3161    2.1432    0.8505 H   0  0  0  0  0  0  0  0  0  0  0  0
    2.8838    2.2545    0.9374 H   0  0  0  0  0  0  0  0  0  0  0  0
  1  2  3  0
  2  3  1  0
  3  4  2  0
  4  5  1  0
  5  6  2  0
  6  7  1  0
  7  8  2  0
  8  9  1  0
  9 10  2  0
 10 11  1  0
 11 12  2  0
 12 13  1  0
 13 14  2  0
 13 15  1  0
 15 16  2  0
 16 17  1  0
 17 18  2  0
 18 19  1  0
 19 20  2  0
 20 21  1  0
 21 22  2  0
  8  3  1  0
 14  9  1  0
 22 17  1  0
 22 12  1  0
  4 23  1  0
  6 24  1  0
 10 25  1  0
 11 26  1  0
 14 27  1  0
 16 28  1  0
 18 29  1  0
 19 30  1  0
 20 31  1  0
 21 32  1  0
M  END
