
     RDKit          3D

 31 34  0  0  0  0  0  0  0  0999 V2000
    2.7374    3.1566   -0.6827 N   0  0  0  0  0  0  0  0  0  0  0  0
    3.2152    2.1012   -0.6189 C   0  0  0  0  0  0  0  0  0  0  0  0
    3.8324    0.8210   -0.5287 C   0  0  0  0  0  0  0  0  0  0  0  0
    5.2079    0.7217   -0.4728 C   0  0  0  0  0  0  0  0  0  0  0  0
    5.8766   -0.4481   -0.4156 N   0  0  0  0  0  0  0  0  0  0  0  0
    5.1174   -1.5508   -0.4239 C   0  0  0  0  0  0  0  0  0  0  0  0
    3.7781   -1.5759   -0.4804 N   0  0  0  0  0  0  0  0  0  0  0  0
    3.1373   -0.3787   -0.5210 C   0  0  0  0  0  0  0  0  0  0  0  0
    1.6676   -0.4906   -0.5722 C   0  0  0  0  0  0  0  0  0  0  0  0
    1.0522   -1.2807   -1.5627 C   0  0  0  0  0  0  0  0  0  0  0  0
   -0.3388   -1.4072   -1.6306 C   0  0  0  0  0  0  0  0  0  0  0  0
   -1.1363   -0.7503   -0.6994 C   0  0  0  0  0  0  0  0  0  0  0  0
   -0.5486    0.0241    0.2970 C   0  0  0  0  0  0  0  0  0  0  0  0
    0.8408    0.1522    0.3661 C   0  0  0  0  0  0  0  0  0  0  0  0
   -1.2910    0.6833    1.2448 O   0  0  0  0  0  0  0  0  0  0  0  0
   -2.6510    0.5348    1.1385 C   0  0  0  0  0  0  0  0  0  0  0  0
   -3.4472    1.1920    2.0753 C   0  0  0  0  0  0  0  0  0  0  0  0
   -4.8365    1.0714    2.0092 C   0  0  0  0  0  0  0  0  0  0  0  0
   -5.4250    0.2951    1.0083 C   0  0  0  0  0  0  0  0  0  0  0  0
   -4.6256   -0.3620    0.0712 C   0  0  0  0  0  0  0  0  0  0  0  0
   -3.2385   -0.2397    0.1391 C   0  0  0  0  0  0  0  0  0  0  0  0
   -2.4951   -0.9038   -0.8040 O   0  0  0  0  0  0  0  0  0  0  0  0
    5.8425    1.6056   -0.4769 H   0  0  0  0  0  0  0  0  0  0  0  0
    5.6291   -2.5065   -0.3821 H   0  0  0  0  0  0  0  0  0  0  0  0
    1.6644   -1.8103   -2.2919 H   0  0  0  0  0  0  0  0  0  0  0  0
   -0.7936   -2.0198   -2.4040 H   0  0  0  0  0  0  0  0  0  0  0  0
    1.2662    0.7488    1.1700 H   0  0  0  0  0  0  0  0  0  0  0  0
   -2.9882    1.7962    2.8526 H   0  0  0  0  0  0  0  0  0  0  0  0
   -5.4607    1.5830    2.7376 H   0  0  0  0  0  0  0  0  0  0  0  0
   -6.5072    0.2026    0.9582 H   0  0  0  0  0  0  0  0  0  0  0  0
   -5.0819   -0.9656   -0.7081 H   0  0  0  0  0  0  0  0  0  0  0  0
  1  2  3  0
  2  3  1  0
  3  4  2  0
  4  5  1  0
  5  6  2  0
  6  7  1  0
  7  8  2  0
  8  9  1  0
  9 10  2  0
 10 11  1  0
 11 12  2  0
 12 13  1  0
 13 14  2  0
 13 15  1  0
 15 16  1  0
 16 17  2  0
 17 18  1  0
 18 19  2  0
 19 20  1  0
 20 21  2  0
 21 22  1  0
  8  3  1  0
 14  9  1  0
 21 16  1  0
 22 12  1  0
  4 23  1  0
  6 24  1  0
 10 25  1  0
 11 26  1  0
 14 27  1  0
 17 28  1  0
 18 29  1  0
 19 30  1  0
 20 31  1  0
M  END
