
     RDKit          3D

 30 33  0  0  0  0  0  0  0  0999 V2000
    2.6801    2.4601   -0.9504 N   0  0  0  0  0  0  0  0  0  0  0  0
    2.6255    1.3444   -0.6371 C   0  0  0  0  0  0  0  0  0  0  0  0
    2.5941   -0.0306   -0.2680 C   0  0  0  0  0  0  0  0  0  0  0  0
    3.5046   -0.9210   -0.7955 C   0  0  0  0  0  0  0  0  0  0  0  0
    3.5348   -2.2342   -0.4865 N   0  0  0  0  0  0  0  0  0  0  0  0
    2.6120   -2.6487    0.3928 C   0  0  0  0  0  0  0  0  0  0  0  0
    1.6802   -1.8760    0.9682 N   0  0  0  0  0  0  0  0  0  0  0  0
    1.6778   -0.5647    0.6232 C   0  0  0  0  0  0  0  0  0  0  0  0
    0.6385    0.2292    1.2740 C   0  0  0  0  0  0  0  0  0  0  0  0
    0.8532    0.8332    2.5319 C   0  0  0  0  0  0  0  0  0  0  0  0
   -0.1273    1.6189    3.1402 C   0  0  0  0  0  0  0  0  0  0  0  0
   -1.3594    1.8322    2.5207 C   0  0  0  0  0  0  0  0  0  0  0  0
   -1.5572    1.2163    1.2863 C   0  0  0  0  0  0  0  0  0  0  0  0
   -2.6945    1.3156    0.5479 O   0  0  0  0  0  0  0  0  0  0  0  0
   -2.5072    0.5751   -0.5760 C   0  0  0  0  0  0  0  0  0  0  0  0
   -3.4453    0.4168   -1.5943 C   0  0  0  0  0  0  0  0  0  0  0  0
   -3.0727   -0.3943   -2.6696 C   0  0  0  0  0  0  0  0  0  0  0  0
   -1.8213   -1.0117   -2.7047 C   0  0  0  0  0  0  0  0  0  0  0  0
   -0.8974   -0.8326   -1.6643 C   0  0  0  0  0  0  0  0  0  0  0  0
   -1.2457   -0.0117   -0.5722 C   0  0  0  0  0  0  0  0  0  0  0  0
   -0.6153    0.4178    0.6417 C   0  0  0  0  0  0  0  0  0  0  0  0
    4.2655   -0.6040   -1.5057 H   0  0  0  0  0  0  0  0  0  0  0  0
    2.6187   -3.6997    0.6616 H   0  0  0  0  0  0  0  0  0  0  0  0
    1.8024    0.6860    3.0458 H   0  0  0  0  0  0  0  0  0  0  0  0
    0.0700    2.0732    4.1091 H   0  0  0  0  0  0  0  0  0  0  0  0
   -2.1323    2.4419    2.9737 H   0  0  0  0  0  0  0  0  0  0  0  0
   -4.4139    0.8995   -1.5466 H   0  0  0  0  0  0  0  0  0  0  0  0
   -3.7721   -0.5494   -3.4886 H   0  0  0  0  0  0  0  0  0  0  0  0
   -1.5589   -1.6453   -3.5497 H   0  0  0  0  0  0  0  0  0  0  0  0
    0.0630   -1.3363   -1.7080 H   0  0  0  0  0  0  0  0  0  0  0  0
  1  2  3  0
  2  3  1  0
  3  4  2  0
  4  5  1  0
  5  6  2  0
  6  7  1  0
  7  8  2  0
  8  9  1  0
  9 10  2  0
 10 11  1  0
 11 12  2  0
 12 13  1  0
 13 14  1  0
 14 15  1  0
 15 16  2  0
 16 17  1  0
 17 18  2  0
 18 19  1  0
 19 20  2  0
 20 21  1  0
  8  3  1  0
 21  9  1  0
 21 13  2  0
 20 15  1  0
  4 22  1  0
  6 23  1  0
 10 24  1  0
 11 25  1  0
 12 26  1  0
 16 27  1  0
 17 28  1  0
 18 29  1  0
 19 30  1  0
M  END
