
     RDKit          3D

 23 24  0  0  0  0  0  0  0  0999 V2000
   -2.1263    0.6237    2.7730 N   0  0  0  0  0  0  0  0  0  0  0  0
   -2.0525    0.1762    1.7047 C   0  0  0  0  0  0  0  0  0  0  0  0
   -2.0173   -0.3652    0.3876 C   0  0  0  0  0  0  0  0  0  0  0  0
   -3.1182   -1.0220   -0.1222 C   0  0  0  0  0  0  0  0  0  0  0  0
   -3.1646   -1.5706   -1.3542 N   0  0  0  0  0  0  0  0  0  0  0  0
   -2.0481   -1.4538   -2.0842 C   0  0  0  0  0  0  0  0  0  0  0  0
   -0.9170   -0.8493   -1.6926 N   0  0  0  0  0  0  0  0  0  0  0  0
   -0.9165   -0.2915   -0.4512 C   0  0  0  0  0  0  0  0  0  0  0  0
    0.3496    0.3666   -0.0777 C   0  0  0  0  0  0  0  0  0  0  0  0
    0.3771    1.7565    0.1569 C   0  0  0  0  0  0  0  0  0  0  0  0
    1.5461    2.3953    0.5718 C   0  0  0  0  0  0  0  0  0  0  0  0
    2.7049    1.6543    0.7704 C   0  0  0  0  0  0  0  0  0  0  0  0
    2.7024    0.2808    0.5272 C   0  0  0  0  0  0  0  0  0  0  0  0
    1.5538   -0.3649    0.0479 C   0  0  0  0  0  0  0  0  0  0  0  0
    1.5763   -1.7710   -0.0840 N   0  0  0  0  0  0  0  0  0  0  0  0
   -4.0312   -1.1357    0.4587 H   0  0  0  0  0  0  0  0  0  0  0  0
   -2.0589   -1.8875   -3.0785 H   0  0  0  0  0  0  0  0  0  0  0  0
   -0.5223    2.3553    0.0253 H   0  0  0  0  0  0  0  0  0  0  0  0
    1.5451    3.4663    0.7583 H   0  0  0  0  0  0  0  0  0  0  0  0
    3.6104    2.1415    1.1226 H   0  0  0  0  0  0  0  0  0  0  0  0
    3.6114   -0.2865    0.7102 H   0  0  0  0  0  0  0  0  0  0  0  0
    0.8942   -2.0853   -0.7756 H   0  0  0  0  0  0  0  0  0  0  0  0
    2.5015   -2.1332   -0.2943 H   0  0  0  0  0  0  0  0  0  0  0  0
  1  2  3  0
  2  3  1  0
  3  4  2  0
  4  5  1  0
  5  6  2  0
  6  7  1  0
  7  8  2  0
  8  9  1  0
  9 10  2  0
 10 11  1  0
 11 12  2  0
 12 13  1  0
 13 14  2  0
 14 15  1  0
  8  3  1  0
 14  9  1  0
  4 16  1  0
  6 17  1  0
 10 18  1  0
 11 19  1  0
 12 20  1  0
 13 21  1  0
 15 22  1  0
 15 23  1  0
M  END
