
     RDKit          3D

 19 20  0  0  0  0  0  0  0  0999 V2000
    1.6628   -3.1901   -0.0815 N   0  0  0  0  0  0  0  0  0  0  0  0
    1.6490   -2.0426    0.0918 C   0  0  0  0  0  0  0  0  0  0  0  0
    1.7187   -0.6459    0.3731 C   0  0  0  0  0  0  0  0  0  0  0  0
    2.8791   -0.1388    0.9275 C   0  0  0  0  0  0  0  0  0  0  0  0
    3.0504    1.1510    1.2810 N   0  0  0  0  0  0  0  0  0  0  0  0
    2.0023    1.9518    1.0693 C   0  0  0  0  0  0  0  0  0  0  0  0
    0.8276    1.5744    0.5449 N   0  0  0  0  0  0  0  0  0  0  0  0
    0.6888    0.2651    0.1804 C   0  0  0  0  0  0  0  0  0  0  0  0
   -0.6211   -0.0632   -0.4202 C   0  0  0  0  0  0  0  0  0  0  0  0
   -1.7790    0.6637   -0.1516 C   0  0  0  0  0  0  0  0  0  0  0  0
   -2.9729    0.3070   -0.7707 C   0  0  0  0  0  0  0  0  0  0  0  0
   -2.9596   -0.7618   -1.6407 C   0  0  0  0  0  0  0  0  0  0  0  0
   -1.8377   -1.4551   -1.9023 N   0  0  0  0  0  0  0  0  0  0  0  0
   -0.6633   -1.0982   -1.2890 N   0  0  0  0  0  0  0  0  0  0  0  0
    3.7401   -0.7768    1.1202 H   0  0  0  0  0  0  0  0  0  0  0  0
    2.1105    2.9951    1.3460 H   0  0  0  0  0  0  0  0  0  0  0  0
   -1.7572    1.5058    0.5343 H   0  0  0  0  0  0  0  0  0  0  0  0
   -3.8881    0.8550   -0.5779 H   0  0  0  0  0  0  0  0  0  0  0  0
   -3.8505   -1.0964   -2.1590 H   0  0  0  0  0  0  0  0  0  0  0  0
  1  2  3  0
  2  3  1  0
  3  4  2  0
  4  5  1  0
  5  6  2  0
  6  7  1  0
  7  8  2  0
  8  9  1  0
  9 10  2  0
 10 11  1  0
 11 12  2  0
 12 13  1  0
 13 14  2  0
  8  3  1  0
 14  9  1  0
  4 15  1  0
  6 16  1  0
 10 17  1  0
 11 18  1  0
 12 19  1  0
M  END
