
     RDKit          3D

 18 19  0  0  0  0  0  0  0  0999 V2000
   -0.2847    3.3523    0.5784 N   0  0  0  0  0  0  0  0  0  0  0  0
   -0.6943    2.2786    0.4194 C   0  0  0  0  0  0  0  0  0  0  0  0
   -1.2257    0.9715    0.2406 C   0  0  0  0  0  0  0  0  0  0  0  0
   -2.5950    0.7908    0.2572 C   0  0  0  0  0  0  0  0  0  0  0  0
   -3.2032   -0.3986    0.0733 N   0  0  0  0  0  0  0  0  0  0  0  0
   -2.3892   -1.4385   -0.1410 C   0  0  0  0  0  0  0  0  0  0  0  0
   -1.0515   -1.3839   -0.1816 N   0  0  0  0  0  0  0  0  0  0  0  0
   -0.4747   -0.1694    0.0190 C   0  0  0  0  0  0  0  0  0  0  0  0
    0.9834   -0.1935   -0.0277 C   0  0  0  0  0  0  0  0  0  0  0  0
    1.9797    0.6048    0.5832 C   0  0  0  0  0  0  0  0  0  0  0  0
    3.2194    0.2118    0.2768 N   0  0  0  0  0  0  0  0  0  0  0  0
    3.0280   -0.8505   -0.5190 N   0  0  0  0  0  0  0  0  0  0  0  0
    1.7123   -1.1357   -0.7288 C   0  0  0  0  0  0  0  0  0  0  0  0
   -3.2760    1.6241    0.4204 H   0  0  0  0  0  0  0  0  0  0  0  0
   -2.8509   -2.4079   -0.2950 H   0  0  0  0  0  0  0  0  0  0  0  0
    1.8695    1.4529    1.2476 H   0  0  0  0  0  0  0  0  0  0  0  0
    3.8431   -1.3360   -0.8801 H   0  0  0  0  0  0  0  0  0  0  0  0
    1.4098   -1.9727   -1.3429 H   0  0  0  0  0  0  0  0  0  0  0  0
  1  2  3  0
  2  3  1  0
  3  4  2  0
  4  5  1  0
  5  6  2  0
  6  7  1  0
  7  8  2  0
  8  9  1  0
  9 10  1  0
 10 11  2  0
 11 12  1  0
 12 13  1  0
  8  3  1  0
 13  9  2  0
  4 14  1  0
  6 15  1  0
 10 16  1  0
 12 17  1  0
 13 18  1  0
M  END
