
     RDKit          3D

 29 32  0  0  0  0  0  0  0  0999 V2000
   -0.5221    2.6190    2.3413 N   0  0  0  0  0  0  0  0  0  0  0  0
   -1.3021    2.2167    1.5832 C   0  0  0  0  0  0  0  0  0  0  0  0
   -2.2533    1.7649    0.6249 C   0  0  0  0  0  0  0  0  0  0  0  0
   -3.2433    2.6131    0.1743 C   0  0  0  0  0  0  0  0  0  0  0  0
   -4.1792    2.2593   -0.7300 N   0  0  0  0  0  0  0  0  0  0  0  0
   -4.1103    0.9998   -1.1799 C   0  0  0  0  0  0  0  0  0  0  0  0
   -3.1952    0.0913   -0.8120 N   0  0  0  0  0  0  0  0  0  0  0  0
   -2.2634    0.4863    0.0903 C   0  0  0  0  0  0  0  0  0  0  0  0
   -1.3047   -0.5541    0.4492 C   0  0  0  0  0  0  0  0  0  0  0  0
   -1.6745   -1.6935    1.1648 C   0  0  0  0  0  0  0  0  0  0  0  0
   -0.8417   -2.6854    1.5565 N   0  0  0  0  0  0  0  0  0  0  0  0
    0.4675   -2.6052    1.2229 C   0  0  0  0  0  0  0  0  0  0  0  0
    0.9493   -1.5232    0.4749 C   0  0  0  0  0  0  0  0  0  0  0  0
    0.0547   -0.5172    0.0963 C   0  0  0  0  0  0  0  0  0  0  0  0
    0.7770    0.3948   -0.6439 N   0  0  0  0  0  0  0  0  0  0  0  0
    2.0986    0.0291   -0.7271 C   0  0  0  0  0  0  0  0  0  0  0  0
    3.1732    0.6535   -1.3567 C   0  0  0  0  0  0  0  0  0  0  0  0
    4.3852   -0.0100   -1.2410 C   0  0  0  0  0  0  0  0  0  0  0  0
    4.5699   -1.1756   -0.5838 N   0  0  0  0  0  0  0  0  0  0  0  0
    3.5078   -1.7629    0.0209 C   0  0  0  0  0  0  0  0  0  0  0  0
    2.2388   -1.1719   -0.0351 C   0  0  0  0  0  0  0  0  0  0  0  0
   -3.3245    3.6371    0.5336 H   0  0  0  0  0  0  0  0  0  0  0  0
   -4.8567    0.6878   -1.9029 H   0  0  0  0  0  0  0  0  0  0  0  0
   -2.7110   -1.8424    1.4636 H   0  0  0  0  0  0  0  0  0  0  0  0
    1.0983   -3.4215    1.5570 H   0  0  0  0  0  0  0  0  0  0  0  0
    0.3924    1.2192   -1.0823 H   0  0  0  0  0  0  0  0  0  0  0  0
    3.0809    1.5865   -1.8969 H   0  0  0  0  0  0  0  0  0  0  0  0
    5.2825    0.4005   -1.6979 H   0  0  0  0  0  0  0  0  0  0  0  0
    3.7057   -2.6962    0.5358 H   0  0  0  0  0  0  0  0  0  0  0  0
  1  2  3  0
  2  3  1  0
  3  4  2  0
  4  5  1  0
  5  6  2  0
  6  7  1  0
  7  8  2  0
  8  9  1  0
  9 10  2  0
 10 11  1  0
 11 12  2  0
 12 13  1  0
 13 14  2  0
 14 15  1  0
 15 16  1  0
 16 17  2  0
 17 18  1  0
 18 19  2  0
 19 20  1  0
 20 21  2  0
  8  3  1  0
 14  9  1  0
 21 16  1  0
 21 13  1  0
  4 22  1  0
  6 23  1  0
 10 24  1  0
 12 25  1  0
 15 26  1  0
 17 27  1  0
 18 28  1  0
 20 29  1  0
M  END
