
     RDKit          3D

 25 28  0  0  0  0  0  0  0  0999 V2000
   -2.8635   -2.5271   -1.3896 N   0  0  0  0  0  0  0  0  0  0  0  0
   -3.0598   -1.4792   -0.9304 C   0  0  0  0  0  0  0  0  0  0  0  0
   -3.4048   -0.2095   -0.3810 C   0  0  0  0  0  0  0  0  0  0  0  0
   -4.7366    0.1477   -0.3057 C   0  0  0  0  0  0  0  0  0  0  0  0
   -5.1788    1.3200    0.1934 N   0  0  0  0  0  0  0  0  0  0  0  0
   -4.2344    2.1589    0.6314 C   0  0  0  0  0  0  0  0  0  0  0  0
   -2.9166    1.9230    0.6097 N   0  0  0  0  0  0  0  0  0  0  0  0
   -2.5061    0.7294    0.0990 C   0  0  0  0  0  0  0  0  0  0  0  0
   -1.0410    0.5145    0.0964 C   0  0  0  0  0  0  0  0  0  0  0  0
   -0.4438   -0.5720   -0.3511 N   0  0  0  0  0  0  0  0  0  0  0  0
    0.9286   -0.4734   -0.2197 C   0  0  0  0  0  0  0  0  0  0  0  0
    1.8663   -1.4439   -0.5937 C   0  0  0  0  0  0  0  0  0  0  0  0
    3.2291   -1.2153   -0.4047 C   0  0  0  0  0  0  0  0  0  0  0  0
    4.5758   -2.2236   -0.7697 S   0  0  0  0  0  0  0  0  0  0  0  0
    5.6287   -1.0174   -0.1635 C   0  0  0  0  0  0  0  0  0  0  0  0
    5.0631    0.0780    0.2901 N   0  0  0  0  0  0  0  0  0  0  0  0
    3.6889   -0.0236    0.1572 C   0  0  0  0  0  0  0  0  0  0  0  0
    2.7484    0.9453    0.5303 C   0  0  0  0  0  0  0  0  0  0  0  0
    1.3862    0.7150    0.3406 C   0  0  0  0  0  0  0  0  0  0  0  0
    0.0408    1.7173    0.7028 S   0  0  0  0  0  0  0  0  0  0  0  0
   -5.5233   -0.5185   -0.6559 H   0  0  0  0  0  0  0  0  0  0  0  0
   -4.5628    3.1096    1.0380 H   0  0  0  0  0  0  0  0  0  0  0  0
    1.5162   -2.3747   -1.0320 H   0  0  0  0  0  0  0  0  0  0  0  0
    6.7021   -1.1566   -0.1573 H   0  0  0  0  0  0  0  0  0  0  0  0
    3.0975    1.8762    0.9686 H   0  0  0  0  0  0  0  0  0  0  0  0
  1  2  3  0
  2  3  1  0
  3  4  2  0
  4  5  1  0
  5  6  2  0
  6  7  1  0
  7  8  2  0
  8  9  1  0
  9 10  2  0
 10 11  1  0
 11 12  2  0
 12 13  1  0
 13 14  1  0
 14 15  1  0
 15 16  2  0
 16 17  1  0
 17 18  1  0
 18 19  2  0
 19 20  1  0
  8  3  1  0
 20  9  1  0
 19 11  1  0
 17 13  2  0
  4 21  1  0
  6 22  1  0
 12 23  1  0
 15 24  1  0
 18 25  1  0
M  END
