
     RDKit          3D

 47 54  0  0  0  0  0  0  0  0999 V2000
   -5.5578   -1.1861    0.5720 Si  0  0  0  0  0  4  0  0  0  0  0  0
   -6.7228    0.2162    0.2074 C   0  0  0  0  0  0  0  0  0  0  0  0
   -6.0782    1.3086   -0.2272 C   0  0  0  0  0  0  0  0  0  0  0  0
   -4.6196    1.1438   -0.2961 C   0  0  0  0  0  0  0  0  0  0  0  0
   -3.7554    2.1479   -0.6144 C   0  0  0  0  0  0  0  0  0  0  0  0
   -2.4238    1.9802   -0.5734 N   0  0  0  0  0  0  0  0  0  0  0  0
   -1.8592    0.7933   -0.2426 C   0  0  0  0  0  0  0  0  0  0  0  0
   -2.6446   -0.3653    0.0042 C   0  0  0  0  0  0  0  0  0  0  0  0
   -4.0676   -0.1220    0.0244 C   0  0  0  0  0  0  0  0  0  0  0  0
   -1.9543   -1.6268    0.2292 C   0  0  0  0  0  0  0  0  0  0  0  0
   -2.6183   -2.8847    0.2394 C   0  0  0  0  0  0  0  0  0  0  0  0
   -2.0007   -4.1002    0.5325 C   0  0  0  0  0  0  0  0  0  0  0  0
   -0.6575   -4.1140    0.8095 C   0  0  0  0  0  0  0  0  0  0  0  0
    0.0536   -2.9199    0.7353 C   0  0  0  0  0  0  0  0  0  0  0  0
   -0.5403   -1.6621    0.4132 C   0  0  0  0  0  0  0  0  0  0  0  0
    0.2410   -0.4736    0.2529 C   0  0  0  0  0  0  0  0  0  0  0  0
    1.6903   -0.4831    0.4234 C   0  0  0  0  0  0  0  0  0  0  0  0
    2.5837    0.5970    0.2523 C   0  0  0  0  0  0  0  0  0  0  0  0
    4.0188    0.4844    0.4120 C   0  0  0  0  0  0  0  0  0  0  0  0
    4.7101    0.0874    1.9642 S   0  0  0  0  0  0  0  0  0  0  0  0
    6.3431    0.1376    1.3790 C   0  0  0  0  0  0  0  0  0  0  0  0
    6.2951    0.4375    0.0689 C   0  0  0  0  0  0  0  0  0  0  0  0
    7.3563    0.5690   -0.7717 O   0  0  0  0  0  0  0  0  0  0  0  0
    6.6860    0.8662   -1.9453 C   0  0  0  0  0  0  0  0  0  0  0  0
    5.2915    0.9110   -1.8154 C   0  0  0  0  0  0  0  0  0  0  0  0
    5.0430    0.6252   -0.4611 C   0  0  0  0  0  0  0  0  0  0  0  0
    1.9179    1.7596   -0.1242 C   0  0  0  0  0  0  0  0  0  0  0  0
    2.5611    2.9603   -0.3301 C   0  0  0  0  0  0  0  0  0  0  0  0
    1.4728    4.1937   -0.7872 S   0  0  0  0  0  0  0  0  0  0  0  0
    0.1342    3.1270   -0.6815 C   0  0  0  0  0  0  0  0  0  0  0  0
    0.4806    1.8446   -0.3065 C   0  0  0  0  0  0  0  0  0  0  0  0
   -0.4411    0.7366   -0.1179 C   0  0  0  0  0  0  0  0  0  0  0  0
   -5.8108   -2.3333   -0.3358 H   0  0  0  0  0  0  0  0  0  0  0  0
   -5.5140   -1.5224    2.0158 H   0  0  0  0  0  0  0  0  0  0  0  0
   -7.7888    0.1149    0.3421 H   0  0  0  0  0  0  0  0  0  0  0  0
   -6.5610    2.2398   -0.4943 H   0  0  0  0  0  0  0  0  0  0  0  0
   -4.0926    3.1438   -0.8807 H   0  0  0  0  0  0  0  0  0  0  0  0
   -3.6561   -2.9718   -0.0475 H   0  0  0  0  0  0  0  0  0  0  0  0
   -2.5744   -5.0228    0.5291 H   0  0  0  0  0  0  0  0  0  0  0  0
   -0.1490   -5.0438    1.0480 H   0  0  0  0  0  0  0  0  0  0  0  0
    1.1171   -3.0168    0.9294 H   0  0  0  0  0  0  0  0  0  0  0  0
    2.1821   -1.4137    0.7002 H   0  0  0  0  0  0  0  0  0  0  0  0
    7.2084   -0.0487    1.9978 H   0  0  0  0  0  0  0  0  0  0  0  0
    7.3391    1.0202   -2.7946 H   0  0  0  0  0  0  0  0  0  0  0  0
    4.5835    1.1227   -2.6041 H   0  0  0  0  0  0  0  0  0  0  0  0
    3.6120    3.1980   -0.2404 H   0  0  0  0  0  0  0  0  0  0  0  0
   -0.8334    3.5446   -0.9096 H   0  0  0  0  0  0  0  0  0  0  0  0
  1  2  1  0
  2  3  2  0
  3  4  1  0
  4  5  2  0
  5  6  1  0
  6  7  2  0
  7  8  1  0
  8  9  2  0
  8 10  1  0
 10 11  2  0
 11 12  1  0
 12 13  2  0
 13 14  1  0
 14 15  2  0
 15 16  1  0
 16 17  1  0
 17 18  2  0
 18 19  1  0
 19 20  1  0
 20 21  1  0
 21 22  2  0
 22 23  1  0
 23 24  1  0
 24 25  2  0
 25 26  1  0
 18 27  1  0
 27 28  2  0
 28 29  1  0
 29 30  1  0
 30 31  2  0
 31 32  1  0
  9  1  1  0
 15 10  1  0
 32 16  2  0
  9  4  1  0
 26 19  2  0
 31 27  1  0
 32  7  1  0
 26 22  1  0
  1 33  1  0
  1 34  1  0
  2 35  1  0
  3 36  1  0
  5 37  1  0
 11 38  1  0
 12 39  1  0
 13 40  1  0
 14 41  1  0
 17 42  1  0
 21 43  1  0
 24 44  1  0
 25 45  1  0
 28 46  1  0
 30 47  1  0
M  END
