
     RDKit          3D

 38 41  0  0  0  0  0  0  0  0999 V2000
   -0.4383    4.9019    0.2379 N   0  0  0  0  0  0  0  0  0  0  0  0
   -0.8263    3.6755    0.3365 C   0  0  0  0  0  0  0  0  0  0  0  0
    0.1213    2.5746    0.1251 C   0  0  0  0  0  0  0  0  0  0  0  0
   -0.1550    1.2525    0.0753 C   0  0  0  0  0  0  0  0  0  0  0  0
    1.0138    0.2677   -0.1433 C   0  0  0  0  0  0  0  0  0  0  0  0
    0.7027   -0.5341   -1.2826 O   0  0  0  0  0  0  0  0  0  0  0  0
    2.3975    0.9041   -0.4884 C   0  0  0  0  0  0  0  0  0  0  0  0
    3.4967   -0.1430   -0.7024 C   0  0  0  0  0  0  0  0  0  0  0  0
    3.6505   -1.0456    0.5150 C   0  0  0  0  0  0  0  0  0  0  0  0
    2.3208   -1.6655    0.9254 C   0  0  0  0  0  0  0  0  0  0  0  0
    1.2378   -0.6020    1.1199 C   0  0  0  0  0  0  0  0  0  0  0  0
   -1.5096    0.8047    0.2277 N   0  0  0  0  0  0  0  0  0  0  0  0
   -2.5801    1.6549    0.5202 C   0  0  0  0  0  0  0  0  0  0  0  0
   -3.7340    1.0526    0.6387 N   0  0  0  0  0  0  0  0  0  0  0  0
   -3.4721   -0.2544    0.4020 C   0  0  0  0  0  0  0  0  0  0  0  0
   -4.3903   -1.3190    0.4012 C   0  0  0  0  0  0  0  0  0  0  0  0
   -3.9448   -2.6088    0.1225 C   0  0  0  0  0  0  0  0  0  0  0  0
   -2.6038   -2.8312   -0.1535 C   0  0  0  0  0  0  0  0  0  0  0  0
   -1.6775   -1.7782   -0.1547 C   0  0  0  0  0  0  0  0  0  0  0  0
   -2.1149   -0.4693    0.1344 C   0  0  0  0  0  0  0  0  0  0  0  0
   -2.4632    3.3629    0.7532 S   0  0  0  0  0  0  0  0  0  0  0  0
   -1.2524    5.4990    0.4336 H   0  0  0  0  0  0  0  0  0  0  0  0
    1.1253    2.9656   -0.0019 H   0  0  0  0  0  0  0  0  0  0  0  0
    0.5918    0.0558   -2.0488 H   0  0  0  0  0  0  0  0  0  0  0  0
    2.3232    1.4973   -1.4091 H   0  0  0  0  0  0  0  0  0  0  0  0
    2.7263    1.5728    0.3174 H   0  0  0  0  0  0  0  0  0  0  0  0
    3.2701   -0.7505   -1.5867 H   0  0  0  0  0  0  0  0  0  0  0  0
    4.4478    0.3630   -0.9044 H   0  0  0  0  0  0  0  0  0  0  0  0
    4.0514   -0.4605    1.3520 H   0  0  0  0  0  0  0  0  0  0  0  0
    4.3789   -1.8359    0.3019 H   0  0  0  0  0  0  0  0  0  0  0  0
    1.9998   -2.3883    0.1658 H   0  0  0  0  0  0  0  0  0  0  0  0
    2.4537   -2.2258    1.8581 H   0  0  0  0  0  0  0  0  0  0  0  0
    1.5209    0.0457    1.9612 H   0  0  0  0  0  0  0  0  0  0  0  0
    0.3268   -1.1140    1.4374 H   0  0  0  0  0  0  0  0  0  0  0  0
   -5.4366   -1.1250    0.6138 H   0  0  0  0  0  0  0  0  0  0  0  0
   -4.6493   -3.4362    0.1184 H   0  0  0  0  0  0  0  0  0  0  0  0
   -2.2608   -3.8402   -0.3754 H   0  0  0  0  0  0  0  0  0  0  0  0
   -0.6482   -2.0230   -0.3793 H   0  0  0  0  0  0  0  0  0  0  0  0
  1  2  2  3
  2  3  1  0
  3  4  2  0
  4  5  1  0
  5  6  1  0
  5  7  1  0
  7  8  1  0
  8  9  1  0
  9 10  1  0
 10 11  1  0
  4 12  1  0
 12 13  1  0
 13 14  2  0
 14 15  1  0
 15 16  2  0
 16 17  1  0
 17 18  2  0
 18 19  1  0
 19 20  2  0
 13 21  1  0
 21  2  1  0
 11  5  1  0
 20 12  1  0
 20 15  1  0
  1 22  1  0
  3 23  1  0
  6 24  1  0
  7 25  1  0
  7 26  1  0
  8 27  1  0
  8 28  1  0
  9 29  1  0
  9 30  1  0
 10 31  1  0
 10 32  1  0
 11 33  1  0
 11 34  1  0
 16 35  1  0
 17 36  1  0
 18 37  1  0
 19 38  1  0
M  END
