
     RDKit          3D

 28 30  0  0  0  0  0  0  0  0999 V2000
   -1.0985    0.6527    0.2846 N   0  0  0  0  0  0  0  0  0  0  0  0
   -2.4456    0.2798    0.0360 C   0  0  0  0  0  0  0  0  0  0  0  0
   -3.4917    1.1465    0.3848 C   0  0  0  0  0  0  0  0  0  0  0  0
   -4.8153    0.7756    0.1384 C   0  0  0  0  0  0  0  0  0  0  0  0
   -5.0987   -0.4550   -0.4537 C   0  0  0  0  0  0  0  0  0  0  0  0
   -4.0614   -1.3199   -0.8021 C   0  0  0  0  0  0  0  0  0  0  0  0
   -2.7350   -0.9568   -0.5593 C   0  0  0  0  0  0  0  0  0  0  0  0
   -0.7724    1.8402    0.8589 N   0  0  0  0  0  0  0  0  0  0  0  0
    0.5585    1.7695    0.8987 C   0  0  0  0  0  0  0  0  0  0  0  0
    1.0176    0.5510    0.3530 C   0  0  0  0  0  0  0  0  0  0  0  0
    2.3873    0.0575    0.1968 C   0  0  0  0  0  0  0  0  0  0  0  0
    2.6273   -1.2003   -0.3796 C   0  0  0  0  0  0  0  0  0  0  0  0
    3.9296   -1.6829   -0.5343 C   0  0  0  0  0  0  0  0  0  0  0  0
    5.0116   -0.9142   -0.1146 C   0  0  0  0  0  0  0  0  0  0  0  0
    4.7925    0.3358    0.4593 C   0  0  0  0  0  0  0  0  0  0  0  0
    3.4892    0.8197    0.6146 C   0  0  0  0  0  0  0  0  0  0  0  0
   -0.0556   -0.1562   -0.0373 N   0  0  0  0  0  0  0  0  0  0  0  0
   -3.2911    2.1108    0.8476 H   0  0  0  0  0  0  0  0  0  0  0  0
   -5.6257    1.4480    0.4091 H   0  0  0  0  0  0  0  0  0  0  0  0
   -6.1303   -0.7407   -0.6441 H   0  0  0  0  0  0  0  0  0  0  0  0
   -4.2850   -2.2786   -1.2636 H   0  0  0  0  0  0  0  0  0  0  0  0
   -1.9398   -1.6453   -0.8383 H   0  0  0  0  0  0  0  0  0  0  0  0
    1.1191    2.5937    1.3157 H   0  0  0  0  0  0  0  0  0  0  0  0
    1.7960   -1.8182   -0.7149 H   0  0  0  0  0  0  0  0  0  0  0  0
    4.0950   -2.6592   -0.9829 H   0  0  0  0  0  0  0  0  0  0  0  0
    6.0248   -1.2892   -0.2348 H   0  0  0  0  0  0  0  0  0  0  0  0
    5.6373    0.9366    0.7873 H   0  0  0  0  0  0  0  0  0  0  0  0
    3.3601    1.7991    1.0666 H   0  0  0  0  0  0  0  0  0  0  0  0
  1  2  1  0
  2  3  2  0
  3  4  1  0
  4  5  2  0
  5  6  1  0
  6  7  2  0
  1  8  1  0
  8  9  2  0
  9 10  1  0
 10 11  1  0
 11 12  2  0
 12 13  1  0
 13 14  2  0
 14 15  1  0
 15 16  2  0
 10 17  2  0
 17  1  1  0
  7  2  1  0
 16 11  1  0
  3 18  1  0
  4 19  1  0
  5 20  1  0
  6 21  1  0
  7 22  1  0
  9 23  1  0
 12 24  1  0
 13 25  1  0
 14 26  1  0
 15 27  1  0
 16 28  1  0
M  END
