
     RDKit          3D

 36 38  0  0  0  0  0  0  0  0999 V2000
   -2.7141   -1.2164   -0.4999 N   0  0  0  0  0  0  0  0  0  0  0  0
   -1.5311   -0.5716   -0.2322 C   0  0  0  0  0  0  0  0  0  0  0  0
   -0.2963   -1.1370   -0.2291 N   0  0  0  0  0  0  0  0  0  0  0  0
    0.5464   -0.1483    0.0388 C   0  0  0  0  0  0  0  0  0  0  0  0
    2.0021   -0.3059    0.0939 C   0  0  0  0  0  0  0  0  0  0  0  0
    2.5469   -1.4012    0.7813 C   0  0  0  0  0  0  0  0  0  0  0  0
    3.9305   -1.5920    0.8430 C   0  0  0  0  0  0  0  0  0  0  0  0
    4.7786   -0.6868    0.2029 C   0  0  0  0  0  0  0  0  0  0  0  0
    6.2395   -0.8899    0.2684 C   0  0  0  0  0  0  0  0  0  0  0  0
    7.0275   -0.1133   -0.2567 O   0  0  0  0  0  0  0  0  0  0  0  0
    4.2510    0.3979   -0.5024 C   0  0  0  0  0  0  0  0  0  0  0  0
    2.8664    0.5821   -0.5620 C   0  0  0  0  0  0  0  0  0  0  0  0
   -0.1571    1.0217    0.2838 N   0  0  0  0  0  0  0  0  0  0  0  0
   -1.4827    0.7539    0.0637 C   0  0  0  0  0  0  0  0  0  0  0  0
   -2.6408    1.5794    0.1104 C   0  0  0  0  0  0  0  0  0  0  0  0
   -3.8211    0.8756   -0.1470 N   0  0  0  0  0  0  0  0  0  0  0  0
   -3.9068   -0.4937   -0.4719 C   0  0  0  0  0  0  0  0  0  0  0  0
   -4.9950   -1.0205   -0.7216 O   0  0  0  0  0  0  0  0  0  0  0  0
   -5.0714    1.6099   -0.1286 C   0  0  0  0  0  0  0  0  0  0  0  0
   -2.5912    2.7833    0.3439 O   0  0  0  0  0  0  0  0  0  0  0  0
    0.3731    2.2818    0.7493 C   0  0  0  0  0  0  0  0  0  0  0  0
   -2.7147   -2.6307   -0.8269 C   0  0  0  0  0  0  0  0  0  0  0  0
    1.8847   -2.1155    1.2692 H   0  0  0  0  0  0  0  0  0  0  0  0
    4.3255   -2.4475    1.3844 H   0  0  0  0  0  0  0  0  0  0  0  0
    6.5902   -1.7786    0.8195 H   0  0  0  0  0  0  0  0  0  0  0  0
    4.9133    1.0929   -1.0153 H   0  0  0  0  0  0  0  0  0  0  0  0
    2.4738    1.4132   -1.1432 H   0  0  0  0  0  0  0  0  0  0  0  0
   -4.9489    2.6380    0.2211 H   0  0  0  0  0  0  0  0  0  0  0  0
   -5.4838    1.6251   -1.1428 H   0  0  0  0  0  0  0  0  0  0  0  0
   -5.7830    1.0970    0.5268 H   0  0  0  0  0  0  0  0  0  0  0  0
    1.3321    2.1242    1.2469 H   0  0  0  0  0  0  0  0  0  0  0  0
    0.4904    2.9430   -0.1123 H   0  0  0  0  0  0  0  0  0  0  0  0
   -0.3160    2.7161    1.4775 H   0  0  0  0  0  0  0  0  0  0  0  0
   -2.1350   -2.7846   -1.7426 H   0  0  0  0  0  0  0  0  0  0  0  0
   -2.2565   -3.1891   -0.0044 H   0  0  0  0  0  0  0  0  0  0  0  0
   -3.7266   -3.0124   -0.9858 H   0  0  0  0  0  0  0  0  0  0  0  0
  1  2  1  0
  2  3  1  0
  3  4  2  0
  4  5  1  0
  5  6  2  0
  6  7  1  0
  7  8  2  0
  8  9  1  0
  9 10  2  0
  8 11  1  0
 11 12  2  0
  4 13  1  0
 13 14  1  0
 14 15  1  0
 15 16  1  0
 16 17  1  0
 17 18  2  0
 16 19  1  0
 15 20  2  0
 13 21  1  0
  1 22  1  0
 17  1  1  0
 14  2  2  0
 12  5  1  0
  6 23  1  0
  7 24  1  0
  9 25  1  0
 11 26  1  0
 12 27  1  0
 19 28  1  0
 19 29  1  0
 19 30  1  0
 21 31  1  0
 21 32  1  0
 21 33  1  0
 22 34  1  0
 22 35  1  0
 22 36  1  0
M  END
