
     RDKit          3D

 38 40  0  0  0  0  0  0  0  0999 V2000
   -3.0426    0.2508    1.3325 N   0  0  0  0  0  0  0  0  0  0  0  0
   -1.8873    0.1168    0.6014 C   0  0  0  0  0  0  0  0  0  0  0  0
   -0.6221    0.2456    1.0772 N   0  0  0  0  0  0  0  0  0  0  0  0
    0.1711    0.0759    0.0276 C   0  0  0  0  0  0  0  0  0  0  0  0
    1.6315    0.1768    0.0756 C   0  0  0  0  0  0  0  0  0  0  0  0
    2.3500    0.9359   -0.8544 C   0  0  0  0  0  0  0  0  0  0  0  0
    3.7438    1.0153   -0.7747 C   0  0  0  0  0  0  0  0  0  0  0  0
    4.4403    0.3530    0.2388 C   0  0  0  0  0  0  0  0  0  0  0  0
    5.7974    0.5137    0.1983 O   0  0  0  0  0  0  0  0  0  0  0  0
    6.5495   -0.1135    1.2296 C   0  0  0  0  0  0  0  0  0  0  0  0
    3.7283   -0.3872    1.1815 C   0  0  0  0  0  0  0  0  0  0  0  0
    2.3326   -0.4682    1.1020 C   0  0  0  0  0  0  0  0  0  0  0  0
   -0.5847   -0.2382   -1.0923 N   0  0  0  0  0  0  0  0  0  0  0  0
   -1.9034   -0.1652   -0.7281 C   0  0  0  0  0  0  0  0  0  0  0  0
   -3.1062   -0.3334   -1.4691 C   0  0  0  0  0  0  0  0  0  0  0  0
   -4.2534   -0.2112   -0.6791 N   0  0  0  0  0  0  0  0  0  0  0  0
   -4.2742    0.0966    0.6967 C   0  0  0  0  0  0  0  0  0  0  0  0
   -5.3422    0.2246    1.3028 O   0  0  0  0  0  0  0  0  0  0  0  0
   -5.5441   -0.3622   -1.3223 C   0  0  0  0  0  0  0  0  0  0  0  0
   -3.1200   -0.5523   -2.6769 O   0  0  0  0  0  0  0  0  0  0  0  0
   -0.0979   -0.6360   -2.3923 C   0  0  0  0  0  0  0  0  0  0  0  0
   -2.9753    0.5689    2.7472 C   0  0  0  0  0  0  0  0  0  0  0  0
    1.8377    1.4888   -1.6374 H   0  0  0  0  0  0  0  0  0  0  0  0
    4.2921    1.6082   -1.5032 H   0  0  0  0  0  0  0  0  0  0  0  0
    6.2754    0.2803    2.2140 H   0  0  0  0  0  0  0  0  0  0  0  0
    6.4374   -1.2021    1.1932 H   0  0  0  0  0  0  0  0  0  0  0  0
    7.6057    0.1179    1.0610 H   0  0  0  0  0  0  0  0  0  0  0  0
    4.2221   -0.9094    1.9941 H   0  0  0  0  0  0  0  0  0  0  0  0
    1.7877   -1.0391    1.8523 H   0  0  0  0  0  0  0  0  0  0  0  0
   -5.4593   -0.6980   -2.3588 H   0  0  0  0  0  0  0  0  0  0  0  0
   -6.1444   -1.0885   -0.7646 H   0  0  0  0  0  0  0  0  0  0  0  0
   -6.0608    0.6029   -1.3014 H   0  0  0  0  0  0  0  0  0  0  0  0
   -0.1182    0.2379   -3.0475 H   0  0  0  0  0  0  0  0  0  0  0  0
    0.9167   -1.0306   -2.3085 H   0  0  0  0  0  0  0  0  0  0  0  0
   -0.7355   -1.4297   -2.7889 H   0  0  0  0  0  0  0  0  0  0  0  0
   -2.3912   -0.2015    3.2607 H   0  0  0  0  0  0  0  0  0  0  0  0
   -3.9679    0.6146    3.2027 H   0  0  0  0  0  0  0  0  0  0  0  0
   -2.4886    1.5416    2.8707 H   0  0  0  0  0  0  0  0  0  0  0  0
  1  2  1  0
  2  3  1  0
  3  4  2  0
  4  5  1  0
  5  6  2  0
  6  7  1  0
  7  8  2  0
  8  9  1  0
  9 10  1  0
  8 11  1  0
 11 12  2  0
  4 13  1  0
 13 14  1  0
 14 15  1  0
 15 16  1  0
 16 17  1  0
 17 18  2  0
 16 19  1  0
 15 20  2  0
 13 21  1  0
  1 22  1  0
 17  1  1  0
 14  2  2  0
 12  5  1  0
  6 23  1  0
  7 24  1  0
 10 25  1  0
 10 26  1  0
 10 27  1  0
 11 28  1  0
 12 29  1  0
 19 30  1  0
 19 31  1  0
 19 32  1  0
 21 33  1  0
 21 34  1  0
 21 35  1  0
 22 36  1  0
 22 37  1  0
 22 38  1  0
M  END
