
     RDKit          3D

 34 36  0  0  0  0  0  0  0  0999 V2000
   -2.4167   -0.4237    1.0815 N   0  0  0  0  0  0  0  0  0  0  0  0
   -1.1744   -0.2278    0.5287 C   0  0  0  0  0  0  0  0  0  0  0  0
    0.0163   -0.4346    1.1479 N   0  0  0  0  0  0  0  0  0  0  0  0
    0.9414   -0.0857    0.2636 C   0  0  0  0  0  0  0  0  0  0  0  0
    2.3824   -0.1081    0.5251 C   0  0  0  0  0  0  0  0  0  0  0  0
    3.1999    0.9930    0.2351 C   0  0  0  0  0  0  0  0  0  0  0  0
    4.5709    0.9470    0.5004 C   0  0  0  0  0  0  0  0  0  0  0  0
    5.1342   -0.1947    1.0680 C   0  0  0  0  0  0  0  0  0  0  0  0
    4.3275   -1.2872    1.3803 C   0  0  0  0  0  0  0  0  0  0  0  0
    2.9571   -1.2410    1.1157 C   0  0  0  0  0  0  0  0  0  0  0  0
    0.3420    0.2665   -0.9365 N   0  0  0  0  0  0  0  0  0  0  0  0
   -1.0137    0.2165   -0.7456 C   0  0  0  0  0  0  0  0  0  0  0  0
   -2.1073    0.5231   -1.6023 C   0  0  0  0  0  0  0  0  0  0  0  0
   -3.3491    0.2853   -1.0052 N   0  0  0  0  0  0  0  0  0  0  0  0
   -3.5529   -0.1580    0.3178 C   0  0  0  0  0  0  0  0  0  0  0  0
   -4.6924   -0.2987    0.7719 O   0  0  0  0  0  0  0  0  0  0  0  0
   -4.5428    0.5607   -1.7806 C   0  0  0  0  0  0  0  0  0  0  0  0
   -1.9608    0.9599   -2.7401 O   0  0  0  0  0  0  0  0  0  0  0  0
    0.9996    0.5700   -2.1857 C   0  0  0  0  0  0  0  0  0  0  0  0
   -2.5380   -0.8843    2.4527 C   0  0  0  0  0  0  0  0  0  0  0  0
    2.7755    1.9034   -0.1807 H   0  0  0  0  0  0  0  0  0  0  0  0
    5.1977    1.8061    0.2746 H   0  0  0  0  0  0  0  0  0  0  0  0
    6.2000   -0.2286    1.2793 H   0  0  0  0  0  0  0  0  0  0  0  0
    4.7615   -2.1730    1.8369 H   0  0  0  0  0  0  0  0  0  0  0  0
    2.3319   -2.0935    1.3752 H   0  0  0  0  0  0  0  0  0  0  0  0
   -5.0673    1.4080   -1.3268 H   0  0  0  0  0  0  0  0  0  0  0  0
   -4.3196    0.7978   -2.8238 H   0  0  0  0  0  0  0  0  0  0  0  0
   -5.2040   -0.3116   -1.7514 H   0  0  0  0  0  0  0  0  0  0  0  0
    0.4319    0.1290   -3.0085 H   0  0  0  0  0  0  0  0  0  0  0  0
    1.0497    1.6562   -2.2909 H   0  0  0  0  0  0  0  0  0  0  0  0
    2.0015    0.1361   -2.1978 H   0  0  0  0  0  0  0  0  0  0  0  0
   -2.0834   -0.1440    3.1186 H   0  0  0  0  0  0  0  0  0  0  0  0
   -3.5821   -1.0229    2.7454 H   0  0  0  0  0  0  0  0  0  0  0  0
   -2.0167   -1.8411    2.5571 H   0  0  0  0  0  0  0  0  0  0  0  0
  1  2  1  0
  2  3  1  0
  3  4  2  0
  4  5  1  0
  5  6  2  0
  6  7  1  0
  7  8  2  0
  8  9  1  0
  9 10  2  0
  4 11  1  0
 11 12  1  0
 12 13  1  0
 13 14  1  0
 14 15  1  0
 15 16  2  0
 14 17  1  0
 13 18  2  0
 11 19  1  0
  1 20  1  0
 15  1  1  0
 12  2  2  0
 10  5  1  0
  6 21  1  0
  7 22  1  0
  8 23  1  0
  9 24  1  0
 10 25  1  0
 17 26  1  0
 17 27  1  0
 17 28  1  0
 19 29  1  0
 19 30  1  0
 19 31  1  0
 20 32  1  0
 20 33  1  0
 20 34  1  0
M  END
