
     RDKit          3D

 34 38  0  0  0  0  0  0  0  0999 V2000
    0.6767   -0.0378   -0.0790 N   0  0  0  0  0  0  0  0  0  0  0  0
   -0.0213    1.1490    0.1631 C   0  0  0  0  0  0  0  0  0  0  0  0
   -1.4766    1.1741    0.3252 C   0  0  0  0  0  0  0  0  0  0  0  0
   -2.1877   -0.0363    0.2334 C   0  0  0  0  0  0  0  0  0  0  0  0
   -1.4400   -1.2975   -0.0246 C   0  0  0  0  0  0  0  0  0  0  0  0
   -0.0236   -1.2966   -0.1788 C   0  0  0  0  0  0  0  0  0  0  0  0
    0.6401   -2.5077   -0.4206 C   0  0  0  0  0  0  0  0  0  0  0  0
   -0.0560   -3.7145   -0.5136 C   0  0  0  0  0  0  0  0  0  0  0  0
   -1.4302   -3.7319   -0.3663 C   0  0  0  0  0  0  0  0  0  0  0  0
   -2.1097   -2.5393   -0.1254 C   0  0  0  0  0  0  0  0  0  0  0  0
   -3.5888    0.0226    0.3943 C   0  0  0  0  0  0  0  0  0  0  0  0
   -4.2559    1.2276    0.6357 C   0  0  0  0  0  0  0  0  0  0  0  0
   -3.5381    2.4098    0.7228 C   0  0  0  0  0  0  0  0  0  0  0  0
   -2.1551    2.3831    0.5684 C   0  0  0  0  0  0  0  0  0  0  0  0
    0.8832    2.1862    0.2097 C   0  0  0  0  0  0  0  0  0  0  0  0
    2.1723    1.6638   -0.0040 C   0  0  0  0  0  0  0  0  0  0  0  0
    2.0495    0.2751   -0.1849 C   0  0  0  0  0  0  0  0  0  0  0  0
    3.2248   -0.4754   -0.4181 C   0  0  0  0  0  0  0  0  0  0  0  0
    4.4726    0.1632   -0.4647 C   0  0  0  0  0  0  0  0  0  0  0  0
    4.5822    1.5303   -0.2853 C   0  0  0  0  0  0  0  0  0  0  0  0
    3.4381    2.2873   -0.0547 C   0  0  0  0  0  0  0  0  0  0  0  0
    1.7037   -2.5848   -0.5473 H   0  0  0  0  0  0  0  0  0  0  0  0
    0.4835   -4.6395   -0.7018 H   0  0  0  0  0  0  0  0  0  0  0  0
   -1.9779   -4.6678   -0.4375 H   0  0  0  0  0  0  0  0  0  0  0  0
   -3.1871   -2.6135   -0.0183 H   0  0  0  0  0  0  0  0  0  0  0  0
   -4.2056   -0.8682    0.3369 H   0  0  0  0  0  0  0  0  0  0  0  0
   -5.3364    1.2356    0.7546 H   0  0  0  0  0  0  0  0  0  0  0  0
   -4.0491    3.3501    0.9101 H   0  0  0  0  0  0  0  0  0  0  0  0
   -1.6138    3.3219    0.6407 H   0  0  0  0  0  0  0  0  0  0  0  0
    0.6512    3.2285    0.3808 H   0  0  0  0  0  0  0  0  0  0  0  0
    3.2321   -1.5431   -0.5683 H   0  0  0  0  0  0  0  0  0  0  0  0
    5.3676   -0.4285   -0.6451 H   0  0  0  0  0  0  0  0  0  0  0  0
    5.5549    2.0125   -0.3239 H   0  0  0  0  0  0  0  0  0  0  0  0
    3.5202    3.3617    0.0867 H   0  0  0  0  0  0  0  0  0  0  0  0
  1  2  1  0
  2  3  1  0
  3  4  2  0
  4  5  1  0
  5  6  1  0
  6  7  2  0
  7  8  1  0
  8  9  2  0
  9 10  1  0
  4 11  1  0
 11 12  2  0
 12 13  1  0
 13 14  2  0
  2 15  2  0
 15 16  1  0
 16 17  2  0
 17 18  1  0
 18 19  2  0
 19 20  1  0
 20 21  2  0
 17  1  1  0
  6  1  1  0
 14  3  1  0
 10  5  2  0
 21 16  1  0
  7 22  1  0
  8 23  1  0
  9 24  1  0
 10 25  1  0
 11 26  1  0
 12 27  1  0
 13 28  1  0
 14 29  1  0
 15 30  1  0
 18 31  1  0
 19 32  1  0
 20 33  1  0
 21 34  1  0
M  END
