
     RDKit          3D

 27 30  0  0  0  0  0  0  0  0999 V2000
   -1.3562    1.0120    0.0001 N   0  0  0  0  0  0  0  0  0  0  0  0
   -0.1954    1.7615   -0.0209 C   0  0  0  0  0  0  0  0  0  0  0  0
    1.1089    1.1102   -0.0454 C   0  0  0  0  0  0  0  0  0  0  0  0
    1.1581   -0.3041   -0.0472 C   0  0  0  0  0  0  0  0  0  0  0  0
   -0.1203   -1.0776   -0.0241 C   0  0  0  0  0  0  0  0  0  0  0  0
   -1.3706   -0.4044   -0.0006 C   0  0  0  0  0  0  0  0  0  0  0  0
   -2.5872   -1.1030    0.0215 C   0  0  0  0  0  0  0  0  0  0  0  0
   -2.5828   -2.4948    0.0205 C   0  0  0  0  0  0  0  0  0  0  0  0
   -1.3751   -3.1831   -0.0022 C   0  0  0  0  0  0  0  0  0  0  0  0
   -0.1624   -2.4841   -0.0242 C   0  0  0  0  0  0  0  0  0  0  0  0
    2.4325   -0.9009   -0.0711 C   0  0  0  0  0  0  0  0  0  0  0  0
    3.6011   -0.1293   -0.0922 C   0  0  0  0  0  0  0  0  0  0  0  0
    3.5263    1.2589   -0.0899 C   0  0  0  0  0  0  0  0  0  0  0  0
    2.2816    1.8793   -0.0665 C   0  0  0  0  0  0  0  0  0  0  0  0
   -0.4591    3.0555   -0.0152 N   0  0  0  0  0  0  0  0  0  0  0  0
   -1.8235    3.1491    0.0100 C   0  0  0  0  0  0  0  0  0  0  0  0
   -2.4023    1.9018    0.0199 C   0  0  0  0  0  0  0  0  0  0  0  0
   -3.5457   -0.5941    0.0394 H   0  0  0  0  0  0  0  0  0  0  0  0
   -3.5213   -3.0435    0.0374 H   0  0  0  0  0  0  0  0  0  0  0  0
   -1.3712   -4.2708   -0.0030 H   0  0  0  0  0  0  0  0  0  0  0  0
    0.7469   -3.0775   -0.0414 H   0  0  0  0  0  0  0  0  0  0  0  0
    2.5534   -1.9796   -0.0740 H   0  0  0  0  0  0  0  0  0  0  0  0
    4.5720   -0.6188   -0.1104 H   0  0  0  0  0  0  0  0  0  0  0  0
    4.4328    1.8580   -0.1062 H   0  0  0  0  0  0  0  0  0  0  0  0
    2.2183    2.9659   -0.0647 H   0  0  0  0  0  0  0  0  0  0  0  0
   -2.3204    4.1108    0.0198 H   0  0  0  0  0  0  0  0  0  0  0  0
   -3.4384    1.6026    0.0388 H   0  0  0  0  0  0  0  0  0  0  0  0
  1  2  1  0
  2  3  1  0
  3  4  2  0
  4  5  1  0
  5  6  1  0
  6  7  2  0
  7  8  1  0
  8  9  2  0
  9 10  1  0
  4 11  1  0
 11 12  2  0
 12 13  1  0
 13 14  2  0
  2 15  2  0
 15 16  1  0
 16 17  2  0
 17  1  1  0
  6  1  1  0
 14  3  1  0
 10  5  2  0
  7 18  1  0
  8 19  1  0
  9 20  1  0
 10 21  1  0
 11 22  1  0
 12 23  1  0
 13 24  1  0
 14 25  1  0
 16 26  1  0
 17 27  1  0
M  END
