
     RDKit          3D

 30 34  0  0  0  0  0  0  0  0999 V2000
    0.4419   -0.1930    0.0182 N   0  0  0  0  0  0  0  0  0  0  0  0
   -0.0568   -1.4804   -0.1328 C   0  0  0  0  0  0  0  0  0  0  0  0
   -1.4613   -1.6861   -0.2671 C   0  0  0  0  0  0  0  0  0  0  0  0
   -2.3591   -0.6381   -0.2528 C   0  0  0  0  0  0  0  0  0  0  0  0
   -1.8327    0.7228   -0.0933 C   0  0  0  0  0  0  0  0  0  0  0  0
   -0.4322    0.9471    0.0423 C   0  0  0  0  0  0  0  0  0  0  0  0
    0.0368    2.2550    0.1925 C   0  0  0  0  0  0  0  0  0  0  0  0
   -0.8575    3.3299    0.2094 C   0  0  0  0  0  0  0  0  0  0  0  0
   -2.2247    3.1131    0.0772 C   0  0  0  0  0  0  0  0  0  0  0  0
   -2.7115    1.8160   -0.0735 C   0  0  0  0  0  0  0  0  0  0  0  0
   -3.7005   -1.1121   -0.4047 C   0  0  0  0  0  0  0  0  0  0  0  0
   -3.7576   -2.4853   -0.5261 C   0  0  0  0  0  0  0  0  0  0  0  0
   -2.2044   -3.2009   -0.4577 S   0  0  0  0  0  0  0  0  0  0  0  0
    0.8751   -2.4007   -0.1334 N   0  0  0  0  0  0  0  0  0  0  0  0
    2.0417   -1.7096    0.0224 C   0  0  0  0  0  0  0  0  0  0  0  0
    1.8262   -0.3267    0.1220 C   0  0  0  0  0  0  0  0  0  0  0  0
    2.9169    0.5470    0.2870 C   0  0  0  0  0  0  0  0  0  0  0  0
    4.2086    0.0039    0.3483 C   0  0  0  0  0  0  0  0  0  0  0  0
    4.4233   -1.3656    0.2498 C   0  0  0  0  0  0  0  0  0  0  0  0
    3.3439   -2.2334    0.0862 C   0  0  0  0  0  0  0  0  0  0  0  0
    1.0812    2.4989    0.3001 H   0  0  0  0  0  0  0  0  0  0  0  0
   -0.4812    4.3441    0.3270 H   0  0  0  0  0  0  0  0  0  0  0  0
   -2.9134    3.9544    0.0914 H   0  0  0  0  0  0  0  0  0  0  0  0
   -3.7845    1.6784   -0.1745 H   0  0  0  0  0  0  0  0  0  0  0  0
   -4.5877   -0.4924   -0.4258 H   0  0  0  0  0  0  0  0  0  0  0  0
   -4.6347   -3.1052   -0.6518 H   0  0  0  0  0  0  0  0  0  0  0  0
    2.8150    1.6192    0.3697 H   0  0  0  0  0  0  0  0  0  0  0  0
    5.0605    0.6696    0.4758 H   0  0  0  0  0  0  0  0  0  0  0  0
    5.4330   -1.7651    0.2999 H   0  0  0  0  0  0  0  0  0  0  0  0
    3.4957   -3.3049    0.0078 H   0  0  0  0  0  0  0  0  0  0  0  0
  1  2  1  0
  2  3  1  0
  3  4  2  0
  4  5  1  0
  5  6  1  0
  6  7  2  0
  7  8  1  0
  8  9  2  0
  9 10  1  0
  4 11  1  0
 11 12  2  0
 12 13  1  0
  2 14  2  0
 14 15  1  0
 15 16  2  0
 16 17  1  0
 17 18  2  0
 18 19  1  0
 19 20  2  0
 16  1  1  0
  6  1  1  0
 13  3  1  0
 10  5  2  0
 20 15  1  0
  7 21  1  0
  8 22  1  0
  9 23  1  0
 10 24  1  0
 11 25  1  0
 12 26  1  0
 17 27  1  0
 18 28  1  0
 19 29  1  0
 20 30  1  0
M  END
