
     RDKit          3D

 39 45  0  0  0  0  0  0  0  0999 V2000
    3.6672   -0.9307   -2.5044 Si  0  0  0  0  0  4  0  0  0  0  0  0
    5.5857   -0.9865   -2.5601 C   0  0  0  0  0  0  0  0  0  0  0  0
    6.1260   -0.4821   -1.4288 C   0  0  0  0  0  0  0  0  0  0  0  0
    5.1757   -0.0285   -0.4604 C   0  0  0  0  0  0  0  0  0  0  0  0
    5.3565    0.5212    0.7798 C   0  0  0  0  0  0  0  0  0  0  0  0
    3.8329    0.8701    1.5196 S   0  0  0  0  0  0  0  0  0  0  0  0
    2.9331    0.2899    0.1618 C   0  0  0  0  0  0  0  0  0  0  0  0
    3.8012   -0.1520   -0.7930 C   0  0  0  0  0  0  0  0  0  0  0  0
    1.4860    0.3280    0.1873 C   0  0  0  0  0  0  0  0  0  0  0  0
    0.6909   -0.5525    0.9620 C   0  0  0  0  0  0  0  0  0  0  0  0
   -0.7279   -0.4771    0.9155 C   0  0  0  0  0  0  0  0  0  0  0  0
   -1.7049   -1.2223    1.5747 N   0  0  0  0  0  0  0  0  0  0  0  0
   -2.9291   -0.7641    1.1918 C   0  0  0  0  0  0  0  0  0  0  0  0
   -2.7783    0.2748    0.2904 C   0  0  0  0  0  0  0  0  0  0  0  0
   -4.4863    0.8867   -0.2143 Si  0  0  0  0  0  4  0  0  0  0  0  0
   -5.2665   -0.4118    0.9191 C   0  0  0  0  0  0  0  0  0  0  0  0
   -6.4872   -0.9026    1.3605 C   0  0  0  0  0  0  0  0  0  0  0  0
   -6.1464   -1.9222    2.2375 C   0  0  0  0  0  0  0  0  0  0  0  0
   -4.7857   -2.0684    2.3450 O   0  0  0  0  0  0  0  0  0  0  0  0
   -4.2569   -1.1312    1.5275 C   0  0  0  0  0  0  0  0  0  0  0  0
   -1.4303    0.4422    0.1279 C   0  0  0  0  0  0  0  0  0  0  0  0
   -0.6606    1.3370   -0.6541 C   0  0  0  0  0  0  0  0  0  0  0  0
   -1.0152    2.3338   -1.5052 C   0  0  0  0  0  0  0  0  0  0  0  0
    0.1435    2.8900   -1.9900 O   0  0  0  0  0  0  0  0  0  0  0  0
    1.1972    2.2175   -1.4175 C   0  0  0  0  0  0  0  0  0  0  0  0
    0.7374    1.2271   -0.5786 C   0  0  0  0  0  0  0  0  0  0  0  0
    3.1483   -0.0145   -3.5502 H   0  0  0  0  0  0  0  0  0  0  0  0
    3.1084   -2.3058   -2.5110 H   0  0  0  0  0  0  0  0  0  0  0  0
    6.1004   -1.3845   -3.4195 H   0  0  0  0  0  0  0  0  0  0  0  0
    7.1946   -0.4219   -1.2575 H   0  0  0  0  0  0  0  0  0  0  0  0
    6.2770    0.7375    1.3032 H   0  0  0  0  0  0  0  0  0  0  0  0
    1.1721   -1.2958    1.5942 H   0  0  0  0  0  0  0  0  0  0  0  0
   -1.5323   -1.9740    2.2281 H   0  0  0  0  0  0  0  0  0  0  0  0
   -4.7892    0.6539   -1.6501 H   0  0  0  0  0  0  0  0  0  0  0  0
   -4.7644    2.2780    0.2260 H   0  0  0  0  0  0  0  0  0  0  0  0
   -7.4895   -0.5901    1.1044 H   0  0  0  0  0  0  0  0  0  0  0  0
   -6.7263   -2.6084    2.8394 H   0  0  0  0  0  0  0  0  0  0  0  0
   -1.9340    2.7695   -1.8670 H   0  0  0  0  0  0  0  0  0  0  0  0
    2.1769    2.5696   -1.7098 H   0  0  0  0  0  0  0  0  0  0  0  0
  1  2  1  0
  2  3  2  0
  3  4  1  0
  4  5  2  0
  5  6  1  0
  6  7  1  0
  7  8  2  0
  7  9  1  0
  9 10  2  0
 10 11  1  0
 11 12  1  0
 12 13  1  0
 13 14  2  0
 14 15  1  0
 15 16  1  0
 16 17  1  0
 17 18  2  0
 18 19  1  0
 19 20  1  0
 14 21  1  0
 21 22  1  0
 22 23  2  0
 23 24  1  0
 24 25  1  0
 25 26  2  0
  8  1  1  0
 26  9  1  0
  8  4  1  0
 21 11  2  0
 26 22  1  0
 13 20  1  0
 20 16  2  0
  1 27  1  0
  1 28  1  0
  2 29  1  0
  3 30  1  0
  5 31  1  0
 10 32  1  0
 12 33  1  0
 15 34  1  0
 15 35  1  0
 17 36  1  0
 18 37  1  0
 23 38  1  0
 25 39  1  0
M  END
