
     RDKit          3D

 33 37  0  0  0  0  0  0  0  0999 V2000
    0.6857    0.2015    0.0989 N   0  0  0  0  0  0  0  0  0  0  0  0
    0.4281   -1.0909   -0.3459 C   0  0  0  0  0  0  0  0  0  0  0  0
   -0.9292   -1.5716   -0.5690 C   0  0  0  0  0  0  0  0  0  0  0  0
   -1.1447   -2.8847   -1.0188 C   0  0  0  0  0  0  0  0  0  0  0  0
   -2.4358   -3.3534   -1.2348 C   0  0  0  0  0  0  0  0  0  0  0  0
   -3.5145   -2.5108   -1.0018 C   0  0  0  0  0  0  0  0  0  0  0  0
   -3.3021   -1.2013   -0.5533 C   0  0  0  0  0  0  0  0  0  0  0  0
   -2.0056   -0.6981   -0.3255 C   0  0  0  0  0  0  0  0  0  0  0  0
   -1.7193    0.6854    0.1511 C   0  0  0  0  0  0  0  0  0  0  0  0
   -2.7579    1.6057    0.4120 C   0  0  0  0  0  0  0  0  0  0  0  0
   -2.4919    2.8993    0.8576 C   0  0  0  0  0  0  0  0  0  0  0  0
   -3.7905    3.9860    1.1623 Cl  0  0  0  0  0  0  0  0  0  0  0  0
   -1.1859    3.3145    1.0564 C   0  0  0  0  0  0  0  0  0  0  0  0
   -0.1327    2.4324    0.8089 C   0  0  0  0  0  0  0  0  0  0  0  0
   -0.3786    1.1275    0.3605 C   0  0  0  0  0  0  0  0  0  0  0  0
    1.5295   -1.7857   -0.5284 N   0  0  0  0  0  0  0  0  0  0  0  0
    2.5469   -0.9433   -0.1997 C   0  0  0  0  0  0  0  0  0  0  0  0
    3.9249   -1.2167   -0.2283 C   0  0  0  0  0  0  0  0  0  0  0  0
    4.8276   -0.2229    0.1458 C   0  0  0  0  0  0  0  0  0  0  0  0
    4.3627    1.0243    0.5424 C   0  0  0  0  0  0  0  0  0  0  0  0
    2.9905    1.3149    0.5771 C   0  0  0  0  0  0  0  0  0  0  0  0
    2.0751    0.3133    0.1997 C   0  0  0  0  0  0  0  0  0  0  0  0
   -0.2966   -3.5427   -1.2005 H   0  0  0  0  0  0  0  0  0  0  0  0
   -2.5960   -4.3702   -1.5828 H   0  0  0  0  0  0  0  0  0  0  0  0
   -4.5278   -2.8689   -1.1680 H   0  0  0  0  0  0  0  0  0  0  0  0
   -4.1871   -0.5941   -0.3903 H   0  0  0  0  0  0  0  0  0  0  0  0
   -3.7994    1.3337    0.2733 H   0  0  0  0  0  0  0  0  0  0  0  0
   -0.9752    4.3230    1.4039 H   0  0  0  0  0  0  0  0  0  0  0  0
    0.8568    2.8200    0.9840 H   0  0  0  0  0  0  0  0  0  0  0  0
    4.2713   -2.1963   -0.5407 H   0  0  0  0  0  0  0  0  0  0  0  0
    5.8949   -0.4277    0.1260 H   0  0  0  0  0  0  0  0  0  0  0  0
    5.0772    1.7928    0.8325 H   0  0  0  0  0  0  0  0  0  0  0  0
    2.6994    2.3048    0.8954 H   0  0  0  0  0  0  0  0  0  0  0  0
  1  2  1  0
  2  3  1  0
  3  4  2  0
  4  5  1  0
  5  6  2  0
  6  7  1  0
  7  8  2  0
  8  9  1  0
  9 10  2  0
 10 11  1  0
 11 12  1  0
 11 13  2  0
 13 14  1  0
 14 15  2  0
  2 16  2  0
 16 17  1  0
 17 18  2  0
 18 19  1  0
 19 20  2  0
 20 21  1  0
 21 22  2  0
 15  1  1  0
 22 17  1  0
 22  1  1  0
  8  3  1  0
 15  9  1  0
  4 23  1  0
  5 24  1  0
  6 25  1  0
  7 26  1  0
 10 27  1  0
 13 28  1  0
 14 29  1  0
 18 30  1  0
 19 31  1  0
 20 32  1  0
 21 33  1  0
M  END
