
     RDKit          3D

 37 41  0  0  0  0  0  0  0  0999 V2000
   -0.6851   -0.1927   -0.0126 N   0  0  0  0  0  0  0  0  0  0  0  0
   -0.4557   -1.5586   -0.1391 C   0  0  0  0  0  0  0  0  0  0  0  0
    0.8989   -2.1075   -0.0658 C   0  0  0  0  0  0  0  0  0  0  0  0
    1.1153   -3.4959   -0.0818 C   0  0  0  0  0  0  0  0  0  0  0  0
    2.4021   -4.0155    0.0284 C   0  0  0  0  0  0  0  0  0  0  0  0
    3.4804   -3.1521    0.1609 C   0  0  0  0  0  0  0  0  0  0  0  0
    3.2729   -1.7689    0.1768 C   0  0  0  0  0  0  0  0  0  0  0  0
    1.9834   -1.2120    0.0596 C   0  0  0  0  0  0  0  0  0  0  0  0
    1.7187    0.2546    0.0378 C   0  0  0  0  0  0  0  0  0  0  0  0
    2.7586    1.2060    0.0511 C   0  0  0  0  0  0  0  0  0  0  0  0
    2.5079    2.5789   -0.0368 C   0  0  0  0  0  0  0  0  0  0  0  0
    1.2057    3.0483   -0.1793 C   0  0  0  0  0  0  0  0  0  0  0  0
    0.9309    4.5187   -0.2936 C   0  0  0  0  0  0  0  0  0  0  0  0
    0.1515    2.1281   -0.1738 C   0  0  0  0  0  0  0  0  0  0  0  0
    0.3914    0.7517   -0.0297 C   0  0  0  0  0  0  0  0  0  0  0  0
   -1.6730   -2.1666   -0.3690 C   0  0  0  0  0  0  0  0  0  0  0  0
   -2.6892   -1.1995   -0.1887 C   0  0  0  0  0  0  0  0  0  0  0  0
   -4.0970   -1.2757   -0.2166 C   0  0  0  0  0  0  0  0  0  0  0  0
   -4.8586   -0.1579    0.1264 C   0  0  0  0  0  0  0  0  0  0  0  0
   -4.2337    1.0172    0.5190 C   0  0  0  0  0  0  0  0  0  0  0  0
   -2.8379    1.1178    0.5405 C   0  0  0  0  0  0  0  0  0  0  0  0
   -2.0626    0.0120    0.1324 C   0  0  0  0  0  0  0  0  0  0  0  0
    0.2824   -4.1877   -0.1694 H   0  0  0  0  0  0  0  0  0  0  0  0
    2.5591   -5.0906    0.0175 H   0  0  0  0  0  0  0  0  0  0  0  0
    4.4879   -3.5500    0.2524 H   0  0  0  0  0  0  0  0  0  0  0  0
    4.1528   -1.1429    0.2844 H   0  0  0  0  0  0  0  0  0  0  0  0
    3.7996    0.9055    0.1171 H   0  0  0  0  0  0  0  0  0  0  0  0
    3.3454    3.2730   -0.0206 H   0  0  0  0  0  0  0  0  0  0  0  0
    0.0783    4.7050   -0.9550 H   0  0  0  0  0  0  0  0  0  0  0  0
    0.7127    4.9359    0.6942 H   0  0  0  0  0  0  0  0  0  0  0  0
    1.7911    5.0479   -0.7171 H   0  0  0  0  0  0  0  0  0  0  0  0
   -0.8455    2.5144   -0.3445 H   0  0  0  0  0  0  0  0  0  0  0  0
   -1.8318   -3.2163   -0.5754 H   0  0  0  0  0  0  0  0  0  0  0  0
   -4.5890   -2.2091   -0.4753 H   0  0  0  0  0  0  0  0  0  0  0  0
   -5.9436   -0.2203    0.1162 H   0  0  0  0  0  0  0  0  0  0  0  0
   -4.8354    1.8703    0.8246 H   0  0  0  0  0  0  0  0  0  0  0  0
   -2.3890    2.0346    0.9048 H   0  0  0  0  0  0  0  0  0  0  0  0
  1  2  1  0
  2  3  1  0
  3  4  2  0
  4  5  1  0
  5  6  2  0
  6  7  1  0
  7  8  2  0
  8  9  1  0
  9 10  2  0
 10 11  1  0
 11 12  2  0
 12 13  1  0
 12 14  1  0
 14 15  2  0
  2 16  2  0
 16 17  1  0
 17 18  2  0
 18 19  1  0
 19 20  2  0
 20 21  1  0
 21 22  2  0
 15  1  1  0
 22 17  1  0
 22  1  1  0
  8  3  1  0
 15  9  1  0
  4 23  1  0
  5 24  1  0
  6 25  1  0
  7 26  1  0
 10 27  1  0
 11 28  1  0
 13 29  1  0
 13 30  1  0
 13 31  1  0
 14 32  1  0
 16 33  1  0
 18 34  1  0
 19 35  1  0
 20 36  1  0
 21 37  1  0
M  END
