
     RDKit          3D

 30 33  0  0  0  0  0  0  0  0999 V2000
   -0.1961    1.5937    0.3629 N   0  0  0  0  0  0  0  0  0  0  0  0
   -1.5624    1.4225    0.2449 C   0  0  0  0  0  0  0  0  0  0  0  0
   -2.1213    0.1176   -0.0879 C   0  0  0  0  0  0  0  0  0  0  0  0
   -3.5093   -0.0472   -0.2038 C   0  0  0  0  0  0  0  0  0  0  0  0
   -4.0433   -1.2921   -0.5200 C   0  0  0  0  0  0  0  0  0  0  0  0
   -3.1921   -2.3729   -0.7203 C   0  0  0  0  0  0  0  0  0  0  0  0
   -1.8056   -2.2123   -0.6057 C   0  0  0  0  0  0  0  0  0  0  0  0
   -1.2338   -0.9662   -0.2878 C   0  0  0  0  0  0  0  0  0  0  0  0
    0.2367   -0.7377   -0.1533 C   0  0  0  0  0  0  0  0  0  0  0  0
    1.1881   -1.7552   -0.3430 C   0  0  0  0  0  0  0  0  0  0  0  0
    2.5617   -1.5140   -0.2096 C   0  0  0  0  0  0  0  0  0  0  0  0
    3.0351   -0.2456    0.1291 C   0  0  0  0  0  0  0  0  0  0  0  0
    4.5091    0.0128    0.2374 C   0  0  0  0  0  0  0  0  0  0  0  0
    2.1171    0.7926    0.3089 C   0  0  0  0  0  0  0  0  0  0  0  0
    0.7407    0.5476    0.1746 C   0  0  0  0  0  0  0  0  0  0  0  0
   -2.2094    2.5518    0.4685 N   0  0  0  0  0  0  0  0  0  0  0  0
   -1.2409    3.4790    0.7388 C   0  0  0  0  0  0  0  0  0  0  0  0
    0.0114    2.9139    0.6806 C   0  0  0  0  0  0  0  0  0  0  0  0
   -4.1719    0.8017   -0.0455 H   0  0  0  0  0  0  0  0  0  0  0  0
   -5.1192   -1.4162   -0.6088 H   0  0  0  0  0  0  0  0  0  0  0  0
   -3.6049   -3.3482   -0.9672 H   0  0  0  0  0  0  0  0  0  0  0  0
   -1.1915   -3.0918   -0.7723 H   0  0  0  0  0  0  0  0  0  0  0  0
    0.8905   -2.7666   -0.6035 H   0  0  0  0  0  0  0  0  0  0  0  0
    3.2595   -2.3332   -0.3735 H   0  0  0  0  0  0  0  0  0  0  0  0
    5.0420   -0.8885    0.5584 H   0  0  0  0  0  0  0  0  0  0  0  0
    4.7151    0.7922    0.9785 H   0  0  0  0  0  0  0  0  0  0  0  0
    4.9051    0.3313   -0.7318 H   0  0  0  0  0  0  0  0  0  0  0  0
    2.4952    1.7811    0.5526 H   0  0  0  0  0  0  0  0  0  0  0  0
   -1.4945    4.5073    0.9621 H   0  0  0  0  0  0  0  0  0  0  0  0
    0.9887    3.3427    0.8366 H   0  0  0  0  0  0  0  0  0  0  0  0
  1  2  1  0
  2  3  1  0
  3  4  2  0
  4  5  1  0
  5  6  2  0
  6  7  1  0
  7  8  2  0
  8  9  1  0
  9 10  2  0
 10 11  1  0
 11 12  2  0
 12 13  1  0
 12 14  1  0
 14 15  2  0
  2 16  2  0
 16 17  1  0
 17 18  2  0
 15  1  1  0
 18  1  1  0
  8  3  1  0
 15  9  1  0
  4 19  1  0
  5 20  1  0
  6 21  1  0
  7 22  1  0
 10 23  1  0
 11 24  1  0
 13 25  1  0
 13 26  1  0
 13 27  1  0
 14 28  1  0
 17 29  1  0
 18 30  1  0
M  END
