
     RDKit          3D

 31 35  0  0  0  0  0  0  0  0999 V2000
    0.6331    0.1959    0.2350 N   0  0  0  0  0  0  0  0  0  0  0  0
    0.1080   -1.0820    0.1359 C   0  0  0  0  0  0  0  0  0  0  0  0
   -1.3307   -1.2902   -0.0084 C   0  0  0  0  0  0  0  0  0  0  0  0
   -1.8695   -2.5785   -0.1092 C   0  0  0  0  0  0  0  0  0  0  0  0
   -3.2457   -2.7511   -0.2462 C   0  0  0  0  0  0  0  0  0  0  0  0
   -4.0851   -1.6399   -0.2828 C   0  0  0  0  0  0  0  0  0  0  0  0
   -3.5508   -0.3523   -0.1825 C   0  0  0  0  0  0  0  0  0  0  0  0
   -2.1670   -0.1541   -0.0437 C   0  0  0  0  0  0  0  0  0  0  0  0
   -1.5566    1.1855    0.0658 C   0  0  0  0  0  0  0  0  0  0  0  0
   -2.3938    2.2583    0.0279 N   0  0  0  0  0  0  0  0  0  0  0  0
   -1.8113    3.4755    0.1301 C   0  0  0  0  0  0  0  0  0  0  0  0
   -0.4441    3.6378    0.2658 C   0  0  0  0  0  0  0  0  0  0  0  0
    0.4090    2.5911    0.3062 N   0  0  0  0  0  0  0  0  0  0  0  0
   -0.1695    1.3630    0.2040 C   0  0  0  0  0  0  0  0  0  0  0  0
    1.0523   -1.9988    0.1900 N   0  0  0  0  0  0  0  0  0  0  0  0
    2.2260   -1.3027    0.3280 C   0  0  0  0  0  0  0  0  0  0  0  0
    3.5355   -1.7970    0.4330 C   0  0  0  0  0  0  0  0  0  0  0  0
    4.5934   -0.8914    0.5681 C   0  0  0  0  0  0  0  0  0  0  0  0
    4.3533    0.4819    0.5984 C   0  0  0  0  0  0  0  0  0  0  0  0
    3.0547    0.9939    0.4952 C   0  0  0  0  0  0  0  0  0  0  0  0
    2.0041    0.0736    0.3602 C   0  0  0  0  0  0  0  0  0  0  0  0
   -1.2149   -3.4478   -0.0807 H   0  0  0  0  0  0  0  0  0  0  0  0
   -3.6619   -3.7524   -0.3242 H   0  0  0  0  0  0  0  0  0  0  0  0
   -5.1591   -1.7732   -0.3897 H   0  0  0  0  0  0  0  0  0  0  0  0
   -4.2253    0.5020   -0.2134 H   0  0  0  0  0  0  0  0  0  0  0  0
   -2.4824    4.3268    0.0994 H   0  0  0  0  0  0  0  0  0  0  0  0
    0.0040    4.6220    0.3463 H   0  0  0  0  0  0  0  0  0  0  0  0
    3.7145   -2.8664    0.4086 H   0  0  0  0  0  0  0  0  0  0  0  0
    5.6113   -1.2647    0.6502 H   0  0  0  0  0  0  0  0  0  0  0  0
    5.1895    1.1702    0.7042 H   0  0  0  0  0  0  0  0  0  0  0  0
    2.8789    2.0647    0.5199 H   0  0  0  0  0  0  0  0  0  0  0  0
  1  2  1  0
  2  3  1  0
  3  4  2  0
  4  5  1  0
  5  6  2  0
  6  7  1  0
  7  8  2  0
  8  9  1  0
  9 10  2  0
 10 11  1  0
 11 12  2  0
 12 13  1  0
 13 14  2  0
  2 15  2  0
 15 16  1  0
 16 17  2  0
 17 18  1  0
 18 19  2  0
 19 20  1  0
 20 21  2  0
 14  1  1  0
 21 16  1  0
 21  1  1  0
  8  3  1  0
 14  9  1  0
  4 22  1  0
  5 23  1  0
  6 24  1  0
  7 25  1  0
 11 26  1  0
 12 27  1  0
 17 28  1  0
 18 29  1  0
 19 30  1  0
 20 31  1  0
M  END
