
     RDKit          3D

 36 40  0  0  0  0  0  0  0  0999 V2000
    1.6548   -0.3100    0.6284 N   0  0  0  0  0  0  0  0  0  0  0  0
    1.1322   -0.9730    1.7631 C   0  0  0  0  0  0  0  0  0  0  0  0
   -0.1668   -1.1502    1.9758 C   0  0  0  0  0  0  0  0  0  0  0  0
   -1.2090   -0.6933    1.0843 C   0  0  0  0  0  0  0  0  0  0  0  0
   -0.8611   -0.0188   -0.0847 C   0  0  0  0  0  0  0  0  0  0  0  0
   -1.7822    0.4431   -0.9757 C   0  0  0  0  0  0  0  0  0  0  0  0
   -3.1283    0.2135   -0.6738 C   0  0  0  0  0  0  0  0  0  0  0  0
   -4.0633    0.6834   -1.5801 C   0  0  0  0  0  0  0  0  0  0  0  0
   -5.3997    0.4740   -1.3133 C   0  0  0  0  0  0  0  0  0  0  0  0
   -5.7821   -0.1882   -0.1688 C   0  0  0  0  0  0  0  0  0  0  0  0
   -4.8467   -0.6560    0.7338 C   0  0  0  0  0  0  0  0  0  0  0  0
   -3.5036   -0.4510    0.4753 C   0  0  0  0  0  0  0  0  0  0  0  0
   -2.5431   -0.9083    1.3611 C   0  0  0  0  0  0  0  0  0  0  0  0
    0.6357    0.2222   -0.3950 B   0  0  0  0  0  0  0  0  0  0  0  0
    1.1838    0.9542   -1.6504 C   0  0  0  0  0  0  0  0  0  0  0  0
    2.4925    1.0828   -1.7762 C   0  0  0  0  0  0  0  0  0  0  0  0
    3.4376    0.5615   -0.7778 C   0  0  0  0  0  0  0  0  0  0  0  0
    3.0353   -0.1027    0.3685 C   0  0  0  0  0  0  0  0  0  0  0  0
    3.9349   -0.5881    1.2996 C   0  0  0  0  0  0  0  0  0  0  0  0
    5.3054   -0.4024    1.0774 C   0  0  0  0  0  0  0  0  0  0  0  0
    5.6984    0.2560   -0.0595 C   0  0  0  0  0  0  0  0  0  0  0  0
    4.7931    0.7353   -0.9801 C   0  0  0  0  0  0  0  0  0  0  0  0
    1.7843   -1.3669    2.5127 H   0  0  0  0  0  0  0  0  0  0  0  0
   -0.5087   -1.6759    2.8813 H   0  0  0  0  0  0  0  0  0  0  0  0
   -1.4869    0.9646   -1.8774 H   0  0  0  0  0  0  0  0  0  0  0  0
   -3.7193    1.2001   -2.4694 H   0  0  0  0  0  0  0  0  0  0  0  0
   -6.1023    0.8577   -2.0485 H   0  0  0  0  0  0  0  0  0  0  0  0
   -6.8610   -0.3210   -0.0177 H   0  0  0  0  0  0  0  0  0  0  0  0
   -5.1666   -1.1770    1.6326 H   0  0  0  0  0  0  0  0  0  0  0  0
   -2.8735   -1.4247    2.2511 H   0  0  0  0  0  0  0  0  0  0  0  0
    0.4682    1.3285   -2.3700 H   0  0  0  0  0  0  0  0  0  0  0  0
    2.8902    1.5861   -2.6375 H   0  0  0  0  0  0  0  0  0  0  0  0
    3.6330   -1.1088    2.1993 H   0  0  0  0  0  0  0  0  0  0  0  0
    6.0339   -0.7637    1.7750 H   0  0  0  0  0  0  0  0  0  0  0  0
    6.7563    0.4328   -0.2903 H   0  0  0  0  0  0  0  0  0  0  0  0
    5.1345    1.2539   -1.8731 H   0  0  0  0  0  0  0  0  0  0  0  0
  1  2  1  0
  2  3  2  0
  3  4  1  0
  4  5  2  0
  5  6  1  0
  6  7  2  0
  7  8  1  0
  8  9  2  0
  9 10  1  0
 10 11  2  0
  7 12  1  0
 12 13  2  0
  5 14  1  0
 14 15  1  0
 15 16  2  0
 16 17  1  0
 17 18  2  0
 18 19  1  0
 19 20  2  0
 20 21  1  0
 21 22  2  0
 14  1  1  0
 18  1  1  0
 13  4  1  0
 12 11  1  0
 22 17  1  0
  2 23  1  0
  3 24  1  0
  6 25  1  0
  8 26  1  0
  9 27  1  0
 10 28  1  0
 11 29  1  0
 13 30  1  0
 15 31  1  0
 16 32  1  0
 19 33  1  0
 20 34  1  0
 21 35  1  0
 22 36  1  0
M  END
