
     RDKit          3D

 31 32  0  0  0  0  0  0  0  0999 V2000
   -4.2161   -1.0753   -0.9108 N   0  0  0  0  0  0  0  0  0  0  0  0
   -3.0907   -1.4671   -0.2397 C   0  0  0  0  0  0  0  0  0  0  0  0
   -2.6526   -2.6078   -0.3377 O   0  0  0  0  0  0  0  0  0  0  0  0
   -2.3939   -0.4460    0.5819 C   0  0  0  0  0  0  0  0  0  0  0  0
   -3.1202    0.5729    1.2150 C   0  0  0  0  0  0  0  0  0  0  0  0
   -2.4591    1.5142    2.0068 C   0  0  0  0  0  0  0  0  0  0  0  0
   -1.0768    1.4396    2.1748 C   0  0  0  0  0  0  0  0  0  0  0  0
   -0.3486    0.4234    1.5538 C   0  0  0  0  0  0  0  0  0  0  0  0
   -1.0015   -0.5273    0.7648 C   0  0  0  0  0  0  0  0  0  0  0  0
   -0.2074   -1.5034    0.0715 N   0  0  0  0  0  0  0  0  0  0  0  0
    0.3999   -1.0273   -1.4434 S   0  0  0  0  0  6  0  0  0  0  0  0
    0.7712   -2.2330   -2.1519 O   0  0  0  0  0  0  0  0  0  0  0  0
   -0.4919   -0.0500   -2.0325 O   0  0  0  0  0  0  0  0  0  0  0  0
    1.9170   -0.2127   -0.9976 C   0  0  0  0  0  0  0  0  0  0  0  0
    2.9869   -0.9804   -0.5206 C   0  0  0  0  0  0  0  0  0  0  0  0
    4.1815   -0.3486   -0.1747 C   0  0  0  0  0  0  0  0  0  0  0  0
    4.2945    1.0320   -0.3155 C   0  0  0  0  0  0  0  0  0  0  0  0
    5.4421    1.6355    0.0194 F   0  0  0  0  0  0  0  0  0  0  0  0
    3.2363    1.7968   -0.7995 C   0  0  0  0  0  0  0  0  0  0  0  0
    2.0375    1.1738   -1.1482 C   0  0  0  0  0  0  0  0  0  0  0  0
   -4.5639   -1.7403   -1.5916 H   0  0  0  0  0  0  0  0  0  0  0  0
   -4.3711   -0.0985   -1.1224 H   0  0  0  0  0  0  0  0  0  0  0  0
   -4.2014    0.6296    1.1191 H   0  0  0  0  0  0  0  0  0  0  0  0
   -3.0238    2.3018    2.5013 H   0  0  0  0  0  0  0  0  0  0  0  0
   -0.5643    2.1718    2.7950 H   0  0  0  0  0  0  0  0  0  0  0  0
    0.7269    0.3727    1.7020 H   0  0  0  0  0  0  0  0  0  0  0  0
   -0.6945   -2.4041   -0.0607 H   0  0  0  0  0  0  0  0  0  0  0  0
    2.8927   -2.0598   -0.4203 H   0  0  0  0  0  0  0  0  0  0  0  0
    5.0250   -0.9215    0.1984 H   0  0  0  0  0  0  0  0  0  0  0  0
    3.3553    2.8709   -0.9054 H   0  0  0  0  0  0  0  0  0  0  0  0
    1.2110    1.7681   -1.5314 H   0  0  0  0  0  0  0  0  0  0  0  0
  1  2  1  0
  2  3  2  0
  2  4  1  0
  4  5  2  0
  5  6  1  0
  6  7  2  0
  7  8  1  0
  8  9  2  0
  9 10  1  0
 10 11  1  0
 11 12  2  0
 11 13  2  0
 11 14  1  0
 14 15  2  0
 15 16  1  0
 16 17  2  0
 17 18  1  0
 17 19  1  0
 19 20  2  0
  9  4  1  0
 20 14  1  0
  1 21  1  0
  1 22  1  0
  5 23  1  0
  6 24  1  0
  7 25  1  0
  8 26  1  0
 10 27  1  0
 15 28  1  0
 16 29  1  0
 19 30  1  0
 20 31  1  0
M  END
