
     RDKit          3D

 34 36  0  0  0  0  0  0  0  0999 V2000
    4.4145    1.6293   -1.9666 N   0  0  0  0  0  0  0  0  0  0  0  0
    4.9705    1.2887   -0.7653 C   0  0  0  0  0  0  0  0  0  0  0  0
    5.4735    2.1572   -0.0560 O   0  0  0  0  0  0  0  0  0  0  0  0
    5.0426   -0.1918   -0.4300 C   0  0  0  0  0  0  0  0  0  0  0  0
    3.6135   -1.1480   -1.0463 S   0  0  0  0  0  0  0  0  0  0  0  0
    2.3487   -0.5991    0.0577 C   0  0  0  0  0  0  0  0  0  0  0  0
    2.5554    0.4573    0.8712 N   0  0  0  0  0  0  0  0  0  0  0  0
    1.5507    0.8388    1.6830 C   0  0  0  0  0  0  0  0  0  0  0  0
    0.3274    0.2933    1.7934 N   0  0  0  0  0  0  0  0  0  0  0  0
    0.1719   -0.7476    0.9551 C   0  0  0  0  0  0  0  0  0  0  0  0
    1.1179   -1.2483    0.0775 C   0  0  0  0  0  0  0  0  0  0  0  0
    0.4754   -2.3349   -0.5510 C   0  0  0  0  0  0  0  0  0  0  0  0
   -0.7753   -2.5244   -0.1154 N   0  0  0  0  0  0  0  0  0  0  0  0
   -0.9463   -1.5228    0.7864 N   0  0  0  0  0  0  0  0  0  0  0  0
   -2.2056   -1.3816    1.4981 C   0  0  0  0  0  0  0  0  0  0  0  0
   -3.1278   -0.4128    0.8013 C   0  0  0  0  0  0  0  0  0  0  0  0
   -3.9124   -0.8327   -0.2831 C   0  0  0  0  0  0  0  0  0  0  0  0
   -4.7576    0.0659   -0.9354 C   0  0  0  0  0  0  0  0  0  0  0  0
   -4.8235    1.3928   -0.5150 C   0  0  0  0  0  0  0  0  0  0  0  0
   -4.0414    1.8242    0.5548 C   0  0  0  0  0  0  0  0  0  0  0  0
   -3.1953    0.9276    1.2090 C   0  0  0  0  0  0  0  0  0  0  0  0
    3.7542    0.9960   -2.3998 H   0  0  0  0  0  0  0  0  0  0  0  0
    4.2834    2.6199   -2.1252 H   0  0  0  0  0  0  0  0  0  0  0  0
    5.1355   -0.3178    0.6533 H   0  0  0  0  0  0  0  0  0  0  0  0
    5.9477   -0.5929   -0.8972 H   0  0  0  0  0  0  0  0  0  0  0  0
    1.7558    1.6913    2.3248 H   0  0  0  0  0  0  0  0  0  0  0  0
    0.8705   -3.0030   -1.3061 H   0  0  0  0  0  0  0  0  0  0  0  0
   -1.9840   -1.0563    2.5211 H   0  0  0  0  0  0  0  0  0  0  0  0
   -2.6676   -2.3733    1.5726 H   0  0  0  0  0  0  0  0  0  0  0  0
   -3.8609   -1.8634   -0.6309 H   0  0  0  0  0  0  0  0  0  0  0  0
   -5.3609   -0.2691   -1.7753 H   0  0  0  0  0  0  0  0  0  0  0  0
   -5.4805    2.0924   -1.0251 H   0  0  0  0  0  0  0  0  0  0  0  0
   -4.0873    2.8612    0.8774 H   0  0  0  0  0  0  0  0  0  0  0  0
   -2.5827    1.2840    2.0353 H   0  0  0  0  0  0  0  0  0  0  0  0
  1  2  1  0
  2  3  2  0
  2  4  1  0
  4  5  1  0
  5  6  1  0
  6  7  2  0
  7  8  1  0
  8  9  2  0
  9 10  1  0
 10 11  2  0
 11 12  1  0
 12 13  2  0
 13 14  1  0
 14 15  1  0
 15 16  1  0
 16 17  2  0
 17 18  1  0
 18 19  2  0
 19 20  1  0
 20 21  2  0
 11  6  1  0
 21 16  1  0
 14 10  1  0
  1 22  1  0
  1 23  1  0
  4 24  1  0
  4 25  1  0
  8 26  1  0
 12 27  1  0
 15 28  1  0
 15 29  1  0
 17 30  1  0
 18 31  1  0
 19 32  1  0
 20 33  1  0
 21 34  1  0
M  END
