
     RDKit          3D

 31 33  0  0  0  0  0  0  0  0999 V2000
   -1.0148   -2.3620    0.7540 N   0  0  0  0  0  0  0  0  0  0  0  0
   -1.1240   -1.5312   -0.3158 C   0  0  0  0  0  0  0  0  0  0  0  0
   -0.5224   -0.3073   -0.5474 C   0  0  0  0  0  0  0  0  0  0  0  0
    0.3721    0.3483    0.3532 C   0  0  0  0  0  0  0  0  0  0  0  0
    1.1253    0.9069    1.1036 C   0  0  0  0  0  0  0  0  0  0  0  0
    2.0240    1.5782    1.9904 C   0  0  0  0  0  0  0  0  0  0  0  0
    2.9939    2.4434    1.4788 C   0  0  0  0  0  0  0  0  0  0  0  0
    3.8722    3.0985    2.3443 C   0  0  0  0  0  0  0  0  0  0  0  0
    3.7812    2.8897    3.7204 C   0  0  0  0  0  0  0  0  0  0  0  0
    2.8124    2.0271    4.2331 C   0  0  0  0  0  0  0  0  0  0  0  0
    1.9332    1.3712    3.3689 C   0  0  0  0  0  0  0  0  0  0  0  0
   -0.9383    0.1548   -1.8196 C   0  0  0  0  0  0  0  0  0  0  0  0
   -0.5479    1.3695   -2.4635 C   0  0  0  0  0  0  0  0  0  0  0  0
   -0.2349    2.3502   -3.0002 N   0  0  0  0  0  0  0  0  0  0  0  0
   -1.8002   -0.7886   -2.3440 C   0  0  0  0  0  0  0  0  0  0  0  0
   -2.5372   -0.9009   -3.5628 C   0  0  0  0  0  0  0  0  0  0  0  0
   -3.3279   -1.9708   -3.7683 C   0  0  0  0  0  0  0  0  0  0  0  0
   -3.4572   -3.0224   -2.7764 C   0  0  0  0  0  0  0  0  0  0  0  0
   -2.7617   -2.9260   -1.6315 C   0  0  0  0  0  0  0  0  0  0  0  0
   -1.9301   -1.8213   -1.4125 N   0  0  0  0  0  0  0  0  0  0  0  0
   -1.2336   -3.3511    0.6743 H   0  0  0  0  0  0  0  0  0  0  0  0
   -0.2720   -2.1894    1.4301 H   0  0  0  0  0  0  0  0  0  0  0  0
    3.0702    2.6144    0.4074 H   0  0  0  0  0  0  0  0  0  0  0  0
    4.6253    3.7727    1.9445 H   0  0  0  0  0  0  0  0  0  0  0  0
    4.4646    3.4013    4.3935 H   0  0  0  0  0  0  0  0  0  0  0  0
    2.7403    1.8668    5.3057 H   0  0  0  0  0  0  0  0  0  0  0  0
    1.1791    0.7033    3.7774 H   0  0  0  0  0  0  0  0  0  0  0  0
   -2.4575   -0.1226   -4.3170 H   0  0  0  0  0  0  0  0  0  0  0  0
   -3.8958   -2.0706   -4.6887 H   0  0  0  0  0  0  0  0  0  0  0  0
   -4.1154   -3.8599   -2.9795 H   0  0  0  0  0  0  0  0  0  0  0  0
   -2.8227   -3.6723   -0.8518 H   0  0  0  0  0  0  0  0  0  0  0  0
  1  2  1  0
  2  3  2  0
  3  4  1  0
  4  5  3  0
  5  6  1  0
  6  7  2  0
  7  8  1  0
  8  9  2  0
  9 10  1  0
 10 11  2  0
  3 12  1  0
 12 13  1  0
 13 14  3  0
 12 15  2  0
 15 16  1  0
 16 17  2  0
 17 18  1  0
 18 19  2  0
 19 20  1  0
 20  2  1  0
 11  6  1  0
 20 15  1  0
  1 21  1  0
  1 22  1  0
  7 23  1  0
  8 24  1  0
  9 25  1  0
 10 26  1  0
 11 27  1  0
 16 28  1  0
 17 29  1  0
 18 30  1  0
 19 31  1  0
M  END
