
     RDKit          3D

 35 38  0  0  0  0  0  0  0  0999 V2000
    0.5975   -1.0240    2.1405 N   0  0  0  0  0  0  0  0  0  0  0  0
    1.1218   -0.4629    1.0204 C   0  0  0  0  0  0  0  0  0  0  0  0
    0.5481    0.4362    0.1349 C   0  0  0  0  0  0  0  0  0  0  0  0
   -0.8015    0.9619    0.2891 C   0  0  0  0  0  0  0  0  0  0  0  0
   -1.9411    0.2579   -0.1887 C   0  0  0  0  0  0  0  0  0  0  0  0
   -1.8816   -0.9956   -0.8454 C   0  0  0  0  0  0  0  0  0  0  0  0
   -3.0341   -1.6434   -1.2946 C   0  0  0  0  0  0  0  0  0  0  0  0
   -4.2773   -1.0566   -1.1004 C   0  0  0  0  0  0  0  0  0  0  0  0
   -4.3682    0.1774   -0.4579 C   0  0  0  0  0  0  0  0  0  0  0  0
   -3.2186    0.8425   -0.0001 C   0  0  0  0  0  0  0  0  0  0  0  0
   -3.3316    2.0859    0.6423 C   0  0  0  0  0  0  0  0  0  0  0  0
   -2.2039    2.7622    1.1027 C   0  0  0  0  0  0  0  0  0  0  0  0
   -0.9431    2.2032    0.9272 C   0  0  0  0  0  0  0  0  0  0  0  0
    1.5009    0.7103   -0.8826 C   0  0  0  0  0  0  0  0  0  0  0  0
    1.3352    1.5813   -2.0046 C   0  0  0  0  0  0  0  0  0  0  0  0
    1.2244    2.2858   -2.9207 N   0  0  0  0  0  0  0  0  0  0  0  0
    2.6367   -0.0228   -0.6010 C   0  0  0  0  0  0  0  0  0  0  0  0
    3.9086   -0.1756   -1.2338 C   0  0  0  0  0  0  0  0  0  0  0  0
    4.8383   -0.9758   -0.6792 C   0  0  0  0  0  0  0  0  0  0  0  0
    4.5847   -1.6919    0.5575 C   0  0  0  0  0  0  0  0  0  0  0  0
    3.3890   -1.5569    1.1538 C   0  0  0  0  0  0  0  0  0  0  0  0
    2.4130   -0.7338    0.5795 N   0  0  0  0  0  0  0  0  0  0  0  0
   -0.4058   -0.9338    2.3019 H   0  0  0  0  0  0  0  0  0  0  0  0
    0.9644   -1.8945    2.5137 H   0  0  0  0  0  0  0  0  0  0  0  0
   -0.9245   -1.4842   -1.0156 H   0  0  0  0  0  0  0  0  0  0  0  0
   -2.9559   -2.6035   -1.7978 H   0  0  0  0  0  0  0  0  0  0  0  0
   -5.1771   -1.5552   -1.4508 H   0  0  0  0  0  0  0  0  0  0  0  0
   -5.3519    0.6214   -0.3189 H   0  0  0  0  0  0  0  0  0  0  0  0
   -4.3088    2.5422    0.7878 H   0  0  0  0  0  0  0  0  0  0  0  0
   -2.3092    3.7246    1.5965 H   0  0  0  0  0  0  0  0  0  0  0  0
   -0.0685    2.7364    1.2940 H   0  0  0  0  0  0  0  0  0  0  0  0
    4.1197    0.3550   -2.1582 H   0  0  0  0  0  0  0  0  0  0  0  0
    5.8103   -1.1016   -1.1469 H   0  0  0  0  0  0  0  0  0  0  0  0
    5.3673   -2.3156    0.9750 H   0  0  0  0  0  0  0  0  0  0  0  0
    3.1431   -2.0567    2.0802 H   0  0  0  0  0  0  0  0  0  0  0  0
  1  2  1  0
  2  3  2  0
  3  4  1  0
  4  5  1  0
  5  6  2  0
  6  7  1  0
  7  8  2  0
  8  9  1  0
  5 10  1  0
 10 11  1  0
 11 12  2  0
 12 13  1  0
  3 14  1  0
 14 15  1  0
 15 16  3  0
 14 17  2  0
 17 18  1  0
 18 19  2  0
 19 20  1  0
 20 21  2  0
 21 22  1  0
 22  2  1  0
 13  4  2  0
 10  9  2  0
 22 17  1  0
  1 23  1  0
  1 24  1  0
  6 25  1  0
  7 26  1  0
  8 27  1  0
  9 28  1  0
 11 29  1  0
 12 30  1  0
 13 31  1  0
 18 32  1  0
 19 33  1  0
 20 34  1  0
 21 35  1  0
M  END
