
     RDKit          3D

 29 31  0  0  0  0  0  0  0  0999 V2000
    0.7033    1.6039    1.5422 N   0  0  0  0  0  0  0  0  0  0  0  0
    0.7383    0.5274    0.7111 C   0  0  0  0  0  0  0  0  0  0  0  0
   -0.2729   -0.0324   -0.0572 C   0  0  0  0  0  0  0  0  0  0  0  0
   -1.6372    0.4712   -0.0826 C   0  0  0  0  0  0  0  0  0  0  0  0
   -2.2049    0.9427   -1.2702 C   0  0  0  0  0  0  0  0  0  0  0  0
   -1.4909    0.9605   -2.4062 F   0  0  0  0  0  0  0  0  0  0  0  0
   -3.5149    1.4152   -1.3018 C   0  0  0  0  0  0  0  0  0  0  0  0
   -4.2771    1.4201   -0.1343 C   0  0  0  0  0  0  0  0  0  0  0  0
   -3.7248    0.9529    1.0590 C   0  0  0  0  0  0  0  0  0  0  0  0
   -2.4100    0.4791    1.0864 C   0  0  0  0  0  0  0  0  0  0  0  0
    0.2935   -1.1192   -0.7821 C   0  0  0  0  0  0  0  0  0  0  0  0
   -0.3766   -1.9898   -1.6988 C   0  0  0  0  0  0  0  0  0  0  0  0
   -0.9082   -2.7134   -2.4350 N   0  0  0  0  0  0  0  0  0  0  0  0
    1.6251   -1.2135   -0.4296 C   0  0  0  0  0  0  0  0  0  0  0  0
    2.6969   -2.0823   -0.8016 C   0  0  0  0  0  0  0  0  0  0  0  0
    3.9109   -1.9219   -0.2427 C   0  0  0  0  0  0  0  0  0  0  0  0
    4.1639   -0.8838    0.7393 C   0  0  0  0  0  0  0  0  0  0  0  0
    3.1620   -0.0598    1.0870 C   0  0  0  0  0  0  0  0  0  0  0  0
    1.8982   -0.2137    0.5038 N   0  0  0  0  0  0  0  0  0  0  0  0
    1.5582    2.1103    1.7575 H   0  0  0  0  0  0  0  0  0  0  0  0
   -0.0909    2.2388    1.4698 H   0  0  0  0  0  0  0  0  0  0  0  0
   -3.9313    1.7740   -2.2379 H   0  0  0  0  0  0  0  0  0  0  0  0
   -5.3013    1.7846   -0.1549 H   0  0  0  0  0  0  0  0  0  0  0  0
   -4.3197    0.9521    1.9696 H   0  0  0  0  0  0  0  0  0  0  0  0
   -1.9931    0.1115    2.0223 H   0  0  0  0  0  0  0  0  0  0  0  0
    2.5270   -2.8676   -1.5331 H   0  0  0  0  0  0  0  0  0  0  0  0
    4.7357   -2.5741   -0.5144 H   0  0  0  0  0  0  0  0  0  0  0  0
    5.1541   -0.7989    1.1729 H   0  0  0  0  0  0  0  0  0  0  0  0
    3.2863    0.7263    1.8184 H   0  0  0  0  0  0  0  0  0  0  0  0
  1  2  1  0
  2  3  2  0
  3  4  1  0
  4  5  2  0
  5  6  1  0
  5  7  1  0
  7  8  2  0
  8  9  1  0
  9 10  2  0
  3 11  1  0
 11 12  1  0
 12 13  3  0
 11 14  2  0
 14 15  1  0
 15 16  2  0
 16 17  1  0
 17 18  2  0
 18 19  1  0
 19  2  1  0
 10  4  1  0
 19 14  1  0
  1 20  1  0
  1 21  1  0
  7 22  1  0
  8 23  1  0
  9 24  1  0
 10 25  1  0
 15 26  1  0
 16 27  1  0
 17 28  1  0
 18 29  1  0
M  END
