
     RDKit          3D

 39 42  0  0  0  0  0  0  0  0999 V2000
   -2.2763   -0.7529    2.0186 N   0  0  0  0  0  0  0  0  0  0  0  0
   -2.5882   -0.1778    0.8306 C   0  0  0  0  0  0  0  0  0  0  0  0
   -1.7560    0.2074   -0.2105 C   0  0  0  0  0  0  0  0  0  0  0  0
   -0.3110    0.0613   -0.1814 C   0  0  0  0  0  0  0  0  0  0  0  0
    0.4573    0.8178    0.7083 C   0  0  0  0  0  0  0  0  0  0  0  0
    1.8492    0.6822    0.7274 C   0  0  0  0  0  0  0  0  0  0  0  0
    2.5026   -0.2085   -0.1402 C   0  0  0  0  0  0  0  0  0  0  0  0
    3.9676   -0.3503   -0.1184 C   0  0  0  0  0  0  0  0  0  0  0  0
    4.8053    0.7685   -0.2617 C   0  0  0  0  0  0  0  0  0  0  0  0
    6.1963    0.6348   -0.2411 C   0  0  0  0  0  0  0  0  0  0  0  0
    6.7736   -0.6215   -0.0757 C   0  0  0  0  0  0  0  0  0  0  0  0
    5.9617   -1.7436    0.0680 C   0  0  0  0  0  0  0  0  0  0  0  0
    4.5709   -1.6084    0.0460 C   0  0  0  0  0  0  0  0  0  0  0  0
    1.7163   -0.9584   -1.0305 C   0  0  0  0  0  0  0  0  0  0  0  0
    0.3239   -0.8251   -1.0545 C   0  0  0  0  0  0  0  0  0  0  0  0
   -2.5769    0.7427   -1.2411 C   0  0  0  0  0  0  0  0  0  0  0  0
   -2.1469    1.2676   -2.5000 C   0  0  0  0  0  0  0  0  0  0  0  0
   -1.8163    1.6923   -3.5288 N   0  0  0  0  0  0  0  0  0  0  0  0
   -3.8874    0.6808   -0.8111 C   0  0  0  0  0  0  0  0  0  0  0  0
   -5.1429    1.0596   -1.3786 C   0  0  0  0  0  0  0  0  0  0  0  0
   -6.2788    0.8473   -0.6882 C   0  0  0  0  0  0  0  0  0  0  0  0
   -6.2647    0.2358    0.6278 C   0  0  0  0  0  0  0  0  0  0  0  0
   -5.0872   -0.1179    1.1680 C   0  0  0  0  0  0  0  0  0  0  0  0
   -3.8997    0.1058    0.4604 N   0  0  0  0  0  0  0  0  0  0  0  0
   -2.9190   -0.7736    2.8039 H   0  0  0  0  0  0  0  0  0  0  0  0
   -1.3007   -0.8493    2.2950 H   0  0  0  0  0  0  0  0  0  0  0  0
   -0.0195    1.5198    1.3886 H   0  0  0  0  0  0  0  0  0  0  0  0
    2.4254    1.2758    1.4346 H   0  0  0  0  0  0  0  0  0  0  0  0
    4.3750    1.7577   -0.4053 H   0  0  0  0  0  0  0  0  0  0  0  0
    6.8266    1.5124   -0.3586 H   0  0  0  0  0  0  0  0  0  0  0  0
    7.8552   -0.7260   -0.0604 H   0  0  0  0  0  0  0  0  0  0  0  0
    6.4088   -2.7256    0.1987 H   0  0  0  0  0  0  0  0  0  0  0  0
    3.9551   -2.4970    0.1697 H   0  0  0  0  0  0  0  0  0  0  0  0
    2.1889   -1.6479   -1.7278 H   0  0  0  0  0  0  0  0  0  0  0  0
   -0.2539   -1.4217   -1.7566 H   0  0  0  0  0  0  0  0  0  0  0  0
   -5.1751    1.5163   -2.3640 H   0  0  0  0  0  0  0  0  0  0  0  0
   -7.2411    1.1287   -1.1057 H   0  0  0  0  0  0  0  0  0  0  0  0
   -7.2047    0.0745    1.1437 H   0  0  0  0  0  0  0  0  0  0  0  0
   -5.0135   -0.5833    2.1406 H   0  0  0  0  0  0  0  0  0  0  0  0
  1  2  1  0
  2  3  2  0
  3  4  1  0
  4  5  2  0
  5  6  1  0
  6  7  2  0
  7  8  1  0
  8  9  2  0
  9 10  1  0
 10 11  2  0
 11 12  1  0
 12 13  2  0
  7 14  1  0
 14 15  2  0
  3 16  1  0
 16 17  1  0
 17 18  3  0
 16 19  2  0
 19 20  1  0
 20 21  2  0
 21 22  1  0
 22 23  2  0
 23 24  1  0
 24  2  1  0
 15  4  1  0
 13  8  1  0
 24 19  1  0
  1 25  1  0
  1 26  1  0
  5 27  1  0
  6 28  1  0
  9 29  1  0
 10 30  1  0
 11 31  1  0
 12 32  1  0
 13 33  1  0
 14 34  1  0
 15 35  1  0
 20 36  1  0
 21 37  1  0
 22 38  1  0
 23 39  1  0
M  END
