
     RDKit          3D

 33 35  0  0  0  0  0  0  0  0999 V2000
    2.0660   -1.5682   -0.2657 N   0  0  0  0  0  0  0  0  0  0  0  0
    1.7202   -0.3367    0.1960 C   0  0  0  0  0  0  0  0  0  0  0  0
    0.4672    0.2534    0.2946 C   0  0  0  0  0  0  0  0  0  0  0  0
   -0.7698   -0.4099   -0.0908 C   0  0  0  0  0  0  0  0  0  0  0  0
   -1.6041    0.1559   -1.0611 C   0  0  0  0  0  0  0  0  0  0  0  0
   -2.7997   -0.4754   -1.4266 C   0  0  0  0  0  0  0  0  0  0  0  0
   -3.1719   -1.6775   -0.8243 C   0  0  0  0  0  0  0  0  0  0  0  0
   -4.3059   -2.3938   -1.0901 O   0  0  0  0  0  0  0  0  0  0  0  0
   -5.2189   -1.8285   -2.0224 C   0  0  0  0  0  0  0  0  0  0  0  0
   -2.3386   -2.2421    0.1441 C   0  0  0  0  0  0  0  0  0  0  0  0
   -1.1464   -1.6138    0.5129 C   0  0  0  0  0  0  0  0  0  0  0  0
    0.6577    1.5728    0.7953 C   0  0  0  0  0  0  0  0  0  0  0  0
   -0.3513    2.5548    1.0475 C   0  0  0  0  0  0  0  0  0  0  0  0
   -1.1586    3.3665    1.2407 N   0  0  0  0  0  0  0  0  0  0  0  0
    2.0090    1.7523    1.0142 C   0  0  0  0  0  0  0  0  0  0  0  0
    2.8067    2.8324    1.5031 C   0  0  0  0  0  0  0  0  0  0  0  0
    4.1385    2.6776    1.6232 C   0  0  0  0  0  0  0  0  0  0  0  0
    4.7932    1.4315    1.2703 C   0  0  0  0  0  0  0  0  0  0  0  0
    4.0491    0.4157    0.8034 C   0  0  0  0  0  0  0  0  0  0  0  0
    2.6642    0.5711    0.6666 N   0  0  0  0  0  0  0  0  0  0  0  0
    3.0066   -1.7472   -0.6064 H   0  0  0  0  0  0  0  0  0  0  0  0
    1.3716   -2.0934   -0.7967 H   0  0  0  0  0  0  0  0  0  0  0  0
   -1.3331    1.0896   -1.5491 H   0  0  0  0  0  0  0  0  0  0  0  0
   -3.4142   -0.0002   -2.1839 H   0  0  0  0  0  0  0  0  0  0  0  0
   -4.7673   -1.7484   -3.0166 H   0  0  0  0  0  0  0  0  0  0  0  0
   -5.5886   -0.8578   -1.6757 H   0  0  0  0  0  0  0  0  0  0  0  0
   -6.0772   -2.5028   -2.1005 H   0  0  0  0  0  0  0  0  0  0  0  0
   -2.6233   -3.1770    0.6207 H   0  0  0  0  0  0  0  0  0  0  0  0
   -0.5188   -2.0682    1.2767 H   0  0  0  0  0  0  0  0  0  0  0  0
    2.3351    3.7721    1.7774 H   0  0  0  0  0  0  0  0  0  0  0  0
    4.7586    3.4880    1.9950 H   0  0  0  0  0  0  0  0  0  0  0  0
    5.8670    1.3465    1.3956 H   0  0  0  0  0  0  0  0  0  0  0  0
    4.4772   -0.5392    0.5326 H   0  0  0  0  0  0  0  0  0  0  0  0
  1  2  1  0
  2  3  2  0
  3  4  1  0
  4  5  2  0
  5  6  1  0
  6  7  2  0
  7  8  1  0
  8  9  1  0
  7 10  1  0
 10 11  2  0
  3 12  1  0
 12 13  1  0
 13 14  3  0
 12 15  2  0
 15 16  1  0
 16 17  2  0
 17 18  1  0
 18 19  2  0
 19 20  1  0
 20  2  1  0
 11  4  1  0
 20 15  1  0
  1 21  1  0
  1 22  1  0
  5 23  1  0
  6 24  1  0
  9 25  1  0
  9 26  1  0
  9 27  1  0
 10 28  1  0
 11 29  1  0
 16 30  1  0
 17 31  1  0
 18 32  1  0
 19 33  1  0
M  END
