
     RDKit          3D

 28 30  0  0  0  0  0  0  0  0999 V2000
    0.1131   -0.2940    2.2961 N   0  0  0  0  0  0  0  0  0  0  0  0
    0.3685   -0.5967    0.9976 C   0  0  0  0  0  0  0  0  0  0  0  0
   -0.0402    0.0405   -0.1685 C   0  0  0  0  0  0  0  0  0  0  0  0
   -0.8904    1.2214   -0.1874 C   0  0  0  0  0  0  0  0  0  0  0  0
   -2.1673    1.1833    0.3876 C   0  0  0  0  0  0  0  0  0  0  0  0
   -2.9868    2.3133    0.3603 C   0  0  0  0  0  0  0  0  0  0  0  0
   -2.5365    3.4863   -0.2432 C   0  0  0  0  0  0  0  0  0  0  0  0
   -1.2678    3.5314   -0.8198 C   0  0  0  0  0  0  0  0  0  0  0  0
   -0.4459    2.4025   -0.7934 C   0  0  0  0  0  0  0  0  0  0  0  0
    0.5414   -0.6641   -1.2633 C   0  0  0  0  0  0  0  0  0  0  0  0
    0.4102   -0.3737   -2.6565 C   0  0  0  0  0  0  0  0  0  0  0  0
    0.3347   -0.1568   -3.7938 N   0  0  0  0  0  0  0  0  0  0  0  0
    1.2633   -1.7127   -0.7384 C   0  0  0  0  0  0  0  0  0  0  0  0
    2.0513   -2.7620   -1.3304 C   0  0  0  0  0  0  0  0  0  0  0  0
    2.6448   -3.6721   -0.6093 N   0  0  0  0  0  0  0  0  0  0  0  0
    2.4896   -3.6059    0.7623 C   0  0  0  0  0  0  0  0  0  0  0  0
    1.7754   -2.6589    1.3925 C   0  0  0  0  0  0  0  0  0  0  0  0
    1.1479   -1.6821    0.6328 N   0  0  0  0  0  0  0  0  0  0  0  0
   -0.2702    0.6269    2.5104 H   0  0  0  0  0  0  0  0  0  0  0  0
    0.7190   -0.6292    3.0404 H   0  0  0  0  0  0  0  0  0  0  0  0
   -2.5331    0.2711    0.8547 H   0  0  0  0  0  0  0  0  0  0  0  0
   -3.9779    2.2760    0.8052 H   0  0  0  0  0  0  0  0  0  0  0  0
   -3.1760    4.3652   -0.2681 H   0  0  0  0  0  0  0  0  0  0  0  0
   -0.9184    4.4456   -1.2932 H   0  0  0  0  0  0  0  0  0  0  0  0
    0.5420    2.4599   -1.2443 H   0  0  0  0  0  0  0  0  0  0  0  0
    2.1606   -2.8011   -2.4270 H   0  0  0  0  0  0  0  0  0  0  0  0
    2.9889   -4.3868    1.3305 H   0  0  0  0  0  0  0  0  0  0  0  0
    1.6598   -2.6273    2.4663 H   0  0  0  0  0  0  0  0  0  0  0  0
  1  2  1  0
  2  3  2  0
  3  4  1  0
  4  5  2  0
  5  6  1  0
  6  7  2  0
  7  8  1  0
  8  9  2  0
  3 10  1  0
 10 11  1  0
 11 12  3  0
 10 13  2  0
 13 14  1  0
 14 15  2  0
 15 16  1  0
 16 17  2  0
 17 18  1  0
 18  2  1  0
  9  4  1  0
 18 13  1  0
  1 19  1  0
  1 20  1  0
  5 21  1  0
  6 22  1  0
  7 23  1  0
  8 24  1  0
  9 25  1  0
 14 26  1  0
 16 27  1  0
 17 28  1  0
M  END
