
     RDKit          3D

 19 19  0  0  0  0  0  0  0  0999 V2000
   -3.3618    1.3971    0.5668 N   0  0  0  0  0  0  0  0  0  0  0  0
   -2.3136    0.4908    0.4466 C   0  0  0  0  0  0  0  0  0  0  0  0
   -1.0043    0.9309    0.3770 C   0  0  0  0  0  0  0  0  0  0  0  0
    0.0161   -0.0178    0.2868 C   0  0  0  0  0  0  0  0  0  0  0  0
    1.4167    0.4680    0.2055 C   0  0  0  0  0  0  0  0  0  0  0  0
    2.2837   -0.5748    0.1873 O   0  0  0  0  0  0  0  0  0  0  0  0
    3.6563   -0.1852    0.1147 C   0  0  0  0  0  0  0  0  0  0  0  0
    1.7179    1.6500    0.1613 O   0  0  0  0  0  0  0  0  0  0  0  0
   -0.3079   -1.3732    0.2759 C   0  0  0  0  0  0  0  0  0  0  0  0
   -1.6440   -1.7129    0.3586 C   0  0  0  0  0  0  0  0  0  0  0  0
   -2.6449   -0.8103    0.4438 N   0  0  0  0  0  0  0  0  0  0  0  0
   -4.2257    0.8604    0.5558 H   0  0  0  0  0  0  0  0  0  0  0  0
   -3.3425    2.0998   -0.1628 H   0  0  0  0  0  0  0  0  0  0  0  0
   -0.7798    1.9925    0.4045 H   0  0  0  0  0  0  0  0  0  0  0  0
    4.2659   -1.0930    0.1086 H   0  0  0  0  0  0  0  0  0  0  0  0
    3.8492    0.3680   -0.8098 H   0  0  0  0  0  0  0  0  0  0  0  0
    3.9324    0.4116    0.9897 H   0  0  0  0  0  0  0  0  0  0  0  0
    0.4459   -2.1492    0.2091 H   0  0  0  0  0  0  0  0  0  0  0  0
   -1.9594   -2.7527    0.3599 H   0  0  0  0  0  0  0  0  0  0  0  0
  1  2  1  0
  2  3  2  0
  3  4  1  0
  4  5  1  0
  5  6  1  0
  6  7  1  0
  5  8  2  0
  4  9  2  0
  9 10  1  0
 10 11  2  0
 11  2  1  0
  1 12  1  0
  1 13  1  0
  3 14  1  0
  7 15  1  0
  7 16  1  0
  7 17  1  0
  9 18  1  0
 10 19  1  0
M  END
