
     RDKit          3D

 34 35  0  0  0  0  0  0  0  0999 V2000
    7.2647   -0.1978    0.1768 N   0  0  0  0  0  0  0  0  0  0  0  0
    5.9021    0.0699    0.0065 C   0  0  0  0  0  0  0  0  0  0  0  0
    5.0500   -0.9098   -0.5053 C   0  0  0  0  0  0  0  0  0  0  0  0
    3.6680   -0.6959   -0.5690 C   0  0  0  0  0  0  0  0  0  0  0  0
    3.1077    0.4853   -0.0713 C   0  0  0  0  0  0  0  0  0  0  0  0
    1.6668    0.7636   -0.1436 C   0  0  0  0  0  0  0  0  0  0  0  0
    0.7156   -0.1556    0.0842 C   0  0  0  0  0  0  0  0  0  0  0  0
   -0.6975    0.1473    0.0136 C   0  0  0  0  0  0  0  0  0  0  0  0
   -1.6480   -0.7724    0.2429 C   0  0  0  0  0  0  0  0  0  0  0  0
   -3.0892   -0.4958    0.1719 C   0  0  0  0  0  0  0  0  0  0  0  0
   -3.6458    0.6897    0.6745 C   0  0  0  0  0  0  0  0  0  0  0  0
   -5.0258    0.9109    0.6180 C   0  0  0  0  0  0  0  0  0  0  0  0
   -5.8590   -0.0675    0.0629 C   0  0  0  0  0  0  0  0  0  0  0  0
   -7.3082    0.1590    0.0009 N   0  0  0  0  0  4  0  0  0  0  0  0
   -7.7434    1.2333    0.4397 O   0  0  0  0  0  1  0  0  0  0  0  0
   -8.0117   -0.7373   -0.4868 O   0  0  0  0  0  0  0  0  0  0  0  0
   -5.3208   -1.2627   -0.4286 C   0  0  0  0  0  0  0  0  0  0  0  0
   -3.9394   -1.4727   -0.3660 C   0  0  0  0  0  0  0  0  0  0  0  0
    3.9581    1.4484    0.4817 C   0  0  0  0  0  0  0  0  0  0  0  0
    5.3389    1.2284    0.5436 C   0  0  0  0  0  0  0  0  0  0  0  0
    7.6376   -0.8678   -0.4884 H   0  0  0  0  0  0  0  0  0  0  0  0
    7.8407    0.6348    0.2495 H   0  0  0  0  0  0  0  0  0  0  0  0
    5.4540   -1.8513   -0.8674 H   0  0  0  0  0  0  0  0  0  0  0  0
    3.0402   -1.4655   -1.0107 H   0  0  0  0  0  0  0  0  0  0  0  0
    1.4000    1.7914   -0.3785 H   0  0  0  0  0  0  0  0  0  0  0  0
    0.9912   -1.1747    0.3475 H   0  0  0  0  0  0  0  0  0  0  0  0
   -0.9698    1.1672   -0.2498 H   0  0  0  0  0  0  0  0  0  0  0  0
   -1.3764   -1.7991    0.4787 H   0  0  0  0  0  0  0  0  0  0  0  0
   -3.0113    1.4497    1.1266 H   0  0  0  0  0  0  0  0  0  0  0  0
   -5.4291    1.8409    1.0134 H   0  0  0  0  0  0  0  0  0  0  0  0
   -5.9548   -2.0351   -0.8589 H   0  0  0  0  0  0  0  0  0  0  0  0
   -3.5303   -2.4053   -0.7512 H   0  0  0  0  0  0  0  0  0  0  0  0
    3.5541    2.3709    0.8920 H   0  0  0  0  0  0  0  0  0  0  0  0
    5.9707    1.9757    1.0160 H   0  0  0  0  0  0  0  0  0  0  0  0
  1  2  1  0
  2  3  2  0
  3  4  1  0
  4  5  2  0
  5  6  1  0
  6  7  2  0
  7  8  1  0
  8  9  2  0
  9 10  1  0
 10 11  2  0
 11 12  1  0
 12 13  2  0
 13 14  1  0
 14 15  1  0
 14 16  2  0
 13 17  1  0
 17 18  2  0
  5 19  1  0
 19 20  2  0
 20  2  1  0
 18 10  1  0
  1 21  1  0
  1 22  1  0
  3 23  1  0
  4 24  1  0
  6 25  1  0
  7 26  1  0
  8 27  1  0
  9 28  1  0
 11 29  1  0
 12 30  1  0
 17 31  1  0
 18 32  1  0
 19 33  1  0
 20 34  1  0
M  CHG  2  14   1  15  -1
M  END
