
     RDKit          3D

 42 48  0  0  0  0  0  0  0  0999 V2000
    5.4233    1.1746    0.9853 Si  0  0  0  0  0  4  0  0  0  0  0  0
    7.3050    0.8483    0.8381 C   0  0  0  0  0  0  0  0  0  0  0  0
    7.5598   -0.1917    0.0141 C   0  0  0  0  0  0  0  0  0  0  0  0
    6.3991   -0.8044   -0.5558 C   0  0  0  0  0  0  0  0  0  0  0  0
    6.2810   -1.8679   -1.4082 C   0  0  0  0  0  0  0  0  0  0  0  0
    4.6194   -2.1808   -1.7636 S   0  0  0  0  0  0  0  0  0  0  0  0
    4.0579   -0.8795   -0.7676 C   0  0  0  0  0  0  0  0  0  0  0  0
    5.1352   -0.2574   -0.2055 C   0  0  0  0  0  0  0  0  0  0  0  0
    2.6614   -0.5671   -0.6400 C   0  0  0  0  0  0  0  0  0  0  0  0
    2.0619    0.6512   -0.8809 C   0  0  0  0  0  0  0  0  0  0  0  0
    0.6483    0.6420   -0.6376 C   0  0  0  0  0  0  0  0  0  0  0  0
   -0.3152    1.6662   -0.7400 C   0  0  0  0  0  0  0  0  0  0  0  0
   -1.6710    1.4305   -0.4422 C   0  0  0  0  0  0  0  0  0  0  0  0
   -2.5573    2.5059   -0.5098 C   0  0  0  0  0  0  0  0  0  0  0  0
   -3.9045    2.3589   -0.1897 C   0  0  0  0  0  0  0  0  0  0  0  0
   -4.4421    1.1235    0.1621 C   0  0  0  0  0  0  0  0  0  0  0  0
   -5.8443    1.0958    0.4732 C   0  0  0  0  0  0  0  0  0  0  0  0
   -6.5757   -0.0517    0.8157 C   0  0  0  0  0  0  0  0  0  0  0  0
   -5.7781   -1.1834    0.7701 C   0  0  0  0  0  0  0  0  0  0  0  0
   -6.3162   -2.4238    1.0124 C   0  0  0  0  0  0  0  0  0  0  0  0
   -5.1467   -3.6537    0.8089 S   0  0  0  0  0  0  0  0  0  0  0  0
   -3.9291   -2.5118    0.3892 C   0  0  0  0  0  0  0  0  0  0  0  0
   -4.3605   -1.2057    0.4635 C   0  0  0  0  0  0  0  0  0  0  0  0
   -3.5670   -0.0269    0.1830 C   0  0  0  0  0  0  0  0  0  0  0  0
   -2.1349    0.1498   -0.0644 C   0  0  0  0  0  0  0  0  0  0  0  0
   -1.1439   -0.8538    0.0789 C   0  0  0  0  0  0  0  0  0  0  0  0
    0.2150   -0.6073   -0.2157 C   0  0  0  0  0  0  0  0  0  0  0  0
    1.5215   -1.7229   -0.1106 S   0  0  0  0  0  0  0  0  0  0  0  0
    5.0698    2.5014    0.4197 H   0  0  0  0  0  0  0  0  0  0  0  0
    4.9546    0.9263    2.3708 H   0  0  0  0  0  0  0  0  0  0  0  0
    8.0158    1.4547    1.3758 H   0  0  0  0  0  0  0  0  0  0  0  0
    8.5614   -0.5441   -0.2042 H   0  0  0  0  0  0  0  0  0  0  0  0
    7.0556   -2.4833   -1.8436 H   0  0  0  0  0  0  0  0  0  0  0  0
    2.6055    1.5222   -1.2264 H   0  0  0  0  0  0  0  0  0  0  0  0
    0.0138    2.6573   -1.0457 H   0  0  0  0  0  0  0  0  0  0  0  0
   -2.2035    3.4964   -0.7922 H   0  0  0  0  0  0  0  0  0  0  0  0
   -4.5356    3.2455   -0.2344 H   0  0  0  0  0  0  0  0  0  0  0  0
   -6.4037    2.0338    0.4442 H   0  0  0  0  0  0  0  0  0  0  0  0
   -7.6333   -0.0293    1.0411 H   0  0  0  0  0  0  0  0  0  0  0  0
   -7.3326   -2.6829    1.2755 H   0  0  0  0  0  0  0  0  0  0  0  0
   -2.9802   -2.9223    0.0929 H   0  0  0  0  0  0  0  0  0  0  0  0
   -1.3900   -1.8325    0.4634 H   0  0  0  0  0  0  0  0  0  0  0  0
  1  2  1  0
  2  3  2  0
  3  4  1  0
  4  5  2  0
  5  6  1  0
  6  7  1  0
  7  8  2  0
  7  9  1  0
  9 10  2  0
 10 11  1  0
 11 12  2  0
 12 13  1  0
 13 14  2  0
 14 15  1  0
 15 16  2  0
 16 17  1  0
 17 18  2  0
 18 19  1  0
 19 20  2  0
 20 21  1  0
 21 22  1  0
 22 23  2  0
 23 24  1  0
 24 25  2  0
 25 26  1  0
 26 27  2  0
 27 28  1  0
  8  1  1  0
 28  9  1  0
  8  4  1  0
 27 11  1  0
 25 13  1  0
 24 16  1  0
 23 19  1  0
  1 29  1  0
  1 30  1  0
  2 31  1  0
  3 32  1  0
  5 33  1  0
 10 34  1  0
 12 35  1  0
 14 36  1  0
 15 37  1  0
 17 38  1  0
 18 39  1  0
 20 40  1  0
 22 41  1  0
 26 42  1  0
M  END
