
     RDKit          3D

 19 19  0  0  0  0  0  0  0  0999 V2000
    2.7209    1.5500   -0.3091 N   0  0  0  0  0  0  0  0  0  0  0  0
    1.8547    0.5656    0.1752 C   0  0  0  0  0  0  0  0  0  0  0  0
    2.3198   -0.3858    1.0783 C   0  0  0  0  0  0  0  0  0  0  0  0
    1.4452   -1.3601    1.5518 C   0  0  0  0  0  0  0  0  0  0  0  0
    0.1290   -1.3569    1.1095 C   0  0  0  0  0  0  0  0  0  0  0  0
   -0.2575   -0.3725    0.2067 C   0  0  0  0  0  0  0  0  0  0  0  0
   -1.6724   -0.3623   -0.2741 C   0  0  0  0  0  0  0  0  0  0  0  0
   -1.8838    0.6568   -1.1456 O   0  0  0  0  0  0  0  0  0  0  0  0
   -3.2157    0.7319   -1.6496 C   0  0  0  0  0  0  0  0  0  0  0  0
   -2.5117   -1.1769    0.0858 O   0  0  0  0  0  0  0  0  0  0  0  0
    0.5878    0.5830   -0.2618 N   0  0  0  0  0  0  0  0  0  0  0  0
    3.5034    1.1163   -0.7885 H   0  0  0  0  0  0  0  0  0  0  0  0
    3.0854    2.0995    0.4626 H   0  0  0  0  0  0  0  0  0  0  0  0
    3.3512   -0.3754    1.4147 H   0  0  0  0  0  0  0  0  0  0  0  0
    1.7872   -2.1122    2.2571 H   0  0  0  0  0  0  0  0  0  0  0  0
   -0.5777   -2.1029    1.4596 H   0  0  0  0  0  0  0  0  0  0  0  0
   -3.9259    0.8986   -0.8336 H   0  0  0  0  0  0  0  0  0  0  0  0
   -3.2718    1.5813   -2.3359 H   0  0  0  0  0  0  0  0  0  0  0  0
   -3.4683   -0.1778   -2.2033 H   0  0  0  0  0  0  0  0  0  0  0  0
  1  2  1  0
  2  3  2  0
  3  4  1  0
  4  5  2  0
  5  6  1  0
  6  7  1  0
  7  8  1  0
  8  9  1  0
  7 10  2  0
  6 11  2  0
 11  2  1  0
  1 12  1  0
  1 13  1  0
  3 14  1  0
  4 15  1  0
  5 16  1  0
  9 17  1  0
  9 18  1  0
  9 19  1  0
M  END
