
     RDKit          3D

 29 30  0  0  0  0  0  0  0  0999 V2000
    4.5120    1.7592   -0.8111 N   0  0  0  0  0  0  0  0  0  0  0  0
    3.4560    1.0397   -0.2402 C   0  0  0  0  0  0  0  0  0  0  0  0
    2.9482   -0.0930   -0.8854 C   0  0  0  0  0  0  0  0  0  0  0  0
    1.8187   -0.7496   -0.3912 C   0  0  0  0  0  0  0  0  0  0  0  0
    1.1647   -0.2386    0.7315 C   0  0  0  0  0  0  0  0  0  0  0  0
   -0.2751   -1.0747    1.3433 S   0  0  0  0  0  6  0  0  0  0  0  0
    0.0493   -2.4814    1.4464 O   0  0  0  0  0  0  0  0  0  0  0  0
   -0.7918   -0.3389    2.4789 O   0  0  0  0  0  0  0  0  0  0  0  0
   -1.3779   -0.8806    0.0679 N   0  0  0  0  0  0  0  0  0  0  0  0
   -1.7959    0.5079   -0.2692 C   0  0  0  0  0  0  0  0  0  0  0  0
   -3.3188    0.4827   -0.2709 C   0  0  0  0  0  0  0  0  0  0  0  0
   -3.6407   -0.9537   -0.6289 C   0  0  0  0  0  0  0  0  0  0  0  0
   -2.5975   -1.7225    0.1659 C   0  0  0  0  0  0  0  0  0  0  0  0
    1.6272    0.9188    1.3584 C   0  0  0  0  0  0  0  0  0  0  0  0
    2.7586    1.5651    0.8533 C   0  0  0  0  0  0  0  0  0  0  0  0
    5.0113    2.3485   -0.1519 H   0  0  0  0  0  0  0  0  0  0  0  0
    5.1422    1.1902   -1.3682 H   0  0  0  0  0  0  0  0  0  0  0  0
    3.4328   -0.4766   -1.7797 H   0  0  0  0  0  0  0  0  0  0  0  0
    1.4468   -1.6430   -0.8876 H   0  0  0  0  0  0  0  0  0  0  0  0
   -1.4097    0.7447   -1.2667 H   0  0  0  0  0  0  0  0  0  0  0  0
   -1.4211    1.2596    0.4304 H   0  0  0  0  0  0  0  0  0  0  0  0
   -3.7476    1.2034   -0.9727 H   0  0  0  0  0  0  0  0  0  0  0  0
   -3.6989    0.7140    0.7315 H   0  0  0  0  0  0  0  0  0  0  0  0
   -3.5002   -1.1173   -1.7040 H   0  0  0  0  0  0  0  0  0  0  0  0
   -4.6628   -1.2393   -0.3656 H   0  0  0  0  0  0  0  0  0  0  0  0
   -2.4196   -2.7139   -0.2593 H   0  0  0  0  0  0  0  0  0  0  0  0
   -2.9191   -1.8251    1.2085 H   0  0  0  0  0  0  0  0  0  0  0  0
    1.1135    1.3296    2.2241 H   0  0  0  0  0  0  0  0  0  0  0  0
    3.0955    2.4848    1.3250 H   0  0  0  0  0  0  0  0  0  0  0  0
  1  2  1  0
  2  3  2  0
  3  4  1  0
  4  5  2  0
  5  6  1  0
  6  7  2  0
  6  8  2  0
  6  9  1  0
  9 10  1  0
 10 11  1  0
 11 12  1  0
 12 13  1  0
  5 14  1  0
 14 15  2  0
 15  2  1  0
 13  9  1  0
  1 16  1  0
  1 17  1  0
  3 18  1  0
  4 19  1  0
 10 20  1  0
 10 21  1  0
 11 22  1  0
 11 23  1  0
 12 24  1  0
 12 25  1  0
 13 26  1  0
 13 27  1  0
 14 28  1  0
 15 29  1  0
M  END
