
     RDKit          3D

 32 35  0  0  0  0  0  0  0  0999 V2000
    5.6869    0.4980   -0.8820 N   0  0  0  0  0  0  0  0  0  0  0  0
    4.5039   -0.0502   -0.3526 C   0  0  0  0  0  0  0  0  0  0  0  0
    4.5950   -0.8876    0.7976 C   0  0  0  0  0  0  0  0  0  0  0  0
    3.4777   -1.4079    1.4833 C   0  0  0  0  0  0  0  0  0  0  0  0
    2.2400   -0.9953    0.9657 C   0  0  0  0  0  0  0  0  0  0  0  0
    1.0055   -1.3022    1.3794 N   0  0  0  0  0  0  0  0  0  0  0  0
    0.1988   -0.6097    0.5248 N   0  0  0  0  0  0  0  0  0  0  0  0
   -1.2296   -0.6825    0.6508 C   0  0  0  0  0  0  0  0  0  0  0  0
   -1.7207   -1.5047    1.6911 C   0  0  0  0  0  0  0  0  0  0  0  0
   -3.0835   -1.6544    1.9071 C   0  0  0  0  0  0  0  0  0  0  0  0
   -3.9828   -0.9864    1.0892 C   0  0  0  0  0  0  0  0  0  0  0  0
   -3.5417   -0.1601    0.0467 C   0  0  0  0  0  0  0  0  0  0  0  0
   -4.5119    0.4851   -0.7398 C   0  0  0  0  0  0  0  0  0  0  0  0
   -4.1537    1.3215   -1.7908 C   0  0  0  0  0  0  0  0  0  0  0  0
   -2.8138    1.5228   -2.0678 C   0  0  0  0  0  0  0  0  0  0  0  0
   -1.8367    0.8867   -1.2934 C   0  0  0  0  0  0  0  0  0  0  0  0
   -2.1503    0.0194   -0.2062 C   0  0  0  0  0  0  0  0  0  0  0  0
    0.8365    0.1206   -0.4184 N   0  0  0  0  0  0  0  0  0  0  0  0
    2.1336   -0.0997   -0.1734 C   0  0  0  0  0  0  0  0  0  0  0  0
    3.2632    0.4082   -0.8410 C   0  0  0  0  0  0  0  0  0  0  0  0
    5.6016    0.8186   -1.8424 H   0  0  0  0  0  0  0  0  0  0  0  0
    6.5126   -0.0756   -0.7392 H   0  0  0  0  0  0  0  0  0  0  0  0
    5.5833   -1.1481    1.1773 H   0  0  0  0  0  0  0  0  0  0  0  0
    3.5641   -2.0557    2.3449 H   0  0  0  0  0  0  0  0  0  0  0  0
   -1.0433   -2.0443    2.3521 H   0  0  0  0  0  0  0  0  0  0  0  0
   -3.4429   -2.2907    2.7115 H   0  0  0  0  0  0  0  0  0  0  0  0
   -5.0472   -1.1181    1.2762 H   0  0  0  0  0  0  0  0  0  0  0  0
   -5.5714    0.3396   -0.5365 H   0  0  0  0  0  0  0  0  0  0  0  0
   -4.9180    1.8115   -2.3869 H   0  0  0  0  0  0  0  0  0  0  0  0
   -2.5151    2.1742   -2.8850 H   0  0  0  0  0  0  0  0  0  0  0  0
   -0.8101    1.0978   -1.5738 H   0  0  0  0  0  0  0  0  0  0  0  0
    3.1701    1.0977   -1.6684 H   0  0  0  0  0  0  0  0  0  0  0  0
  1  2  1  0
  2  3  1  0
  3  4  2  0
  4  5  1  0
  5  6  2  0
  6  7  1  0
  7  8  1  0
  8  9  2  0
  9 10  1  0
 10 11  2  0
 11 12  1  0
 12 13  2  0
 13 14  1  0
 14 15  2  0
 15 16  1  0
 16 17  2  0
  7 18  1  0
 18 19  2  0
 19 20  1  0
 20  2  2  0
 19  5  1  0
 17  8  1  0
 17 12  1  0
  1 21  1  0
  1 22  1  0
  3 23  1  0
  4 24  1  0
  9 25  1  0
 10 26  1  0
 11 27  1  0
 13 28  1  0
 14 29  1  0
 15 30  1  0
 16 31  1  0
 20 32  1  0
M  END
