
     RDKit          3D

 32 34  0  0  0  0  0  0  0  0999 V2000
   -2.5786    2.4656   -0.2153 N   0  0  0  0  0  0  0  0  0  0  0  0
   -3.2461    1.2386   -0.0354 C   0  0  0  0  0  0  0  0  0  0  0  0
   -4.6486    1.2360   -0.0574 C   0  0  0  0  0  0  0  0  0  0  0  0
   -5.3688    0.0431    0.0155 C   0  0  0  0  0  0  0  0  0  0  0  0
   -4.6943   -1.1705    0.0715 C   0  0  0  0  0  0  0  0  0  0  0  0
   -3.2999   -1.1896    0.0357 C   0  0  0  0  0  0  0  0  0  0  0  0
   -2.5552    0.0042   -0.0406 C   0  0  0  0  0  0  0  0  0  0  0  0
   -1.0896   -0.0757   -0.1090 C   0  0  0  0  0  0  0  0  0  0  0  0
   -0.3843    0.2818   -1.2591 C   0  0  0  0  0  0  0  0  0  0  0  0
    1.0086    0.1912   -1.2841 C   0  0  0  0  0  0  0  0  0  0  0  0
    1.6937   -0.2596   -0.1545 C   0  0  0  0  0  0  0  0  0  0  0  0
    3.1727   -0.3761   -0.1218 C   0  0  0  0  0  0  0  0  0  0  0  0
    3.8567   -0.8429    1.0035 C   0  0  0  0  0  0  0  0  0  0  0  0
    5.2475   -0.9315    0.9783 C   0  0  0  0  0  0  0  0  0  0  0  0
    5.9311   -0.5530   -0.1680 C   0  0  0  0  0  0  0  0  0  0  0  0
    5.1920   -0.0999   -1.2454 C   0  0  0  0  0  0  0  0  0  0  0  0
    3.8436   -0.0035   -1.2488 N   0  0  0  0  0  0  0  0  0  0  0  0
    1.0236   -0.6134    0.9776 N   0  0  0  0  0  0  0  0  0  0  0  0
   -0.3294   -0.5154    0.9706 C   0  0  0  0  0  0  0  0  0  0  0  0
   -1.6149    2.4544    0.1087 H   0  0  0  0  0  0  0  0  0  0  0  0
   -3.0914    3.2665    0.1388 H   0  0  0  0  0  0  0  0  0  0  0  0
   -5.1937    2.1738   -0.1305 H   0  0  0  0  0  0  0  0  0  0  0  0
   -6.4553    0.0642    0.0143 H   0  0  0  0  0  0  0  0  0  0  0  0
   -5.2505   -2.1029    0.1208 H   0  0  0  0  0  0  0  0  0  0  0  0
   -2.7888   -2.1510    0.0452 H   0  0  0  0  0  0  0  0  0  0  0  0
   -0.9155    0.6349   -2.1406 H   0  0  0  0  0  0  0  0  0  0  0  0
    1.5506    0.4716   -2.1829 H   0  0  0  0  0  0  0  0  0  0  0  0
    3.3121   -1.1372    1.8961 H   0  0  0  0  0  0  0  0  0  0  0  0
    5.7869   -1.2936    1.8486 H   0  0  0  0  0  0  0  0  0  0  0  0
    7.0123   -0.6097   -0.2210 H   0  0  0  0  0  0  0  0  0  0  0  0
    5.6789    0.2084   -2.1662 H   0  0  0  0  0  0  0  0  0  0  0  0
   -0.8052   -0.8090    1.9035 H   0  0  0  0  0  0  0  0  0  0  0  0
  1  2  1  0
  2  3  2  0
  3  4  1  0
  4  5  2  0
  5  6  1  0
  6  7  2  0
  7  8  1  0
  8  9  2  0
  9 10  1  0
 10 11  2  0
 11 12  1  0
 12 13  2  0
 13 14  1  0
 14 15  2  0
 15 16  1  0
 16 17  2  0
 11 18  1  0
 18 19  2  0
  7  2  1  0
 19  8  1  0
 17 12  1  0
  1 20  1  0
  1 21  1  0
  3 22  1  0
  4 23  1  0
  5 24  1  0
  6 25  1  0
  9 26  1  0
 10 27  1  0
 13 28  1  0
 14 29  1  0
 15 30  1  0
 16 31  1  0
 19 32  1  0
M  END
