
     RDKit          3D

 26 28  0  0  0  0  0  0  0  0999 V2000
   -1.2082    0.4897   -2.2836 N   0  0  0  0  0  0  0  0  0  0  0  0
   -1.8322    0.4175   -1.0212 C   0  0  0  0  0  0  0  0  0  0  0  0
   -3.2316    0.4982   -0.9659 C   0  0  0  0  0  0  0  0  0  0  0  0
   -3.9154    0.3385    0.2398 C   0  0  0  0  0  0  0  0  0  0  0  0
   -3.2103    0.0560    1.4036 C   0  0  0  0  0  0  0  0  0  0  0  0
   -1.8235   -0.0867    1.3553 C   0  0  0  0  0  0  0  0  0  0  0  0
   -1.1153    0.0661    0.1469 C   0  0  0  0  0  0  0  0  0  0  0  0
    0.3450   -0.1366    0.1477 C   0  0  0  0  0  0  0  0  0  0  0  0
    0.9122   -1.2448   -0.5117 C   0  0  0  0  0  0  0  0  0  0  0  0
    2.2940   -1.4800   -0.5322 C   0  0  0  0  0  0  0  0  0  0  0  0
    3.0848   -0.5520    0.1421 C   0  0  0  0  0  0  0  0  0  0  0  0
    4.4309   -0.4373    0.3460 N   0  0  0  0  0  0  0  0  0  0  0  0
    4.7382    0.6496    1.0726 N   0  0  0  0  0  0  0  0  0  0  0  0
    3.5998    1.2679    1.3631 N   0  0  0  0  0  0  0  0  0  0  0  0
    2.5727    0.5530    0.8065 C   0  0  0  0  0  0  0  0  0  0  0  0
    1.1884    0.7723    0.8169 C   0  0  0  0  0  0  0  0  0  0  0  0
   -1.7090    1.0715   -2.9473 H   0  0  0  0  0  0  0  0  0  0  0  0
   -0.2254    0.7437   -2.2214 H   0  0  0  0  0  0  0  0  0  0  0  0
   -3.8021    0.6918   -1.8707 H   0  0  0  0  0  0  0  0  0  0  0  0
   -4.9984    0.4236    0.2651 H   0  0  0  0  0  0  0  0  0  0  0  0
   -3.7381   -0.0738    2.3446 H   0  0  0  0  0  0  0  0  0  0  0  0
   -1.2893   -0.3401    2.2694 H   0  0  0  0  0  0  0  0  0  0  0  0
    0.2551   -1.9463   -1.0277 H   0  0  0  0  0  0  0  0  0  0  0  0
    2.7120   -2.3389   -1.0455 H   0  0  0  0  0  0  0  0  0  0  0  0
    5.1798   -1.0409    0.0308 H   0  0  0  0  0  0  0  0  0  0  0  0
    0.7861    1.6380    1.3333 H   0  0  0  0  0  0  0  0  0  0  0  0
  1  2  1  0
  2  3  2  0
  3  4  1  0
  4  5  2  0
  5  6  1  0
  6  7  2  0
  7  8  1  0
  8  9  2  0
  9 10  1  0
 10 11  2  0
 11 12  1  0
 12 13  1  0
 13 14  2  0
 14 15  1  0
 15 16  2  0
  7  2  1  0
 16  8  1  0
 15 11  1  0
  1 17  1  0
  1 18  1  0
  3 19  1  0
  4 20  1  0
  5 21  1  0
  6 22  1  0
  9 23  1  0
 10 24  1  0
 12 25  1  0
 16 26  1  0
M  END
