
     RDKit          3D

 30 32  0  0  0  0  0  0  0  0999 V2000
   -2.5008    1.8768   -0.3884 N   0  0  0  0  0  0  0  0  0  0  0  0
   -2.7423    0.4880   -0.4020 C   0  0  0  0  0  0  0  0  0  0  0  0
   -4.0614    0.0466   -0.5856 C   0  0  0  0  0  0  0  0  0  0  0  0
   -4.3842   -1.3089   -0.5182 C   0  0  0  0  0  0  0  0  0  0  0  0
   -3.3967   -2.2415   -0.2261 C   0  0  0  0  0  0  0  0  0  0  0  0
   -2.0917   -1.8138    0.0196 C   0  0  0  0  0  0  0  0  0  0  0  0
   -1.7457   -0.4487   -0.0385 C   0  0  0  0  0  0  0  0  0  0  0  0
   -0.3608   -0.0528    0.2759 C   0  0  0  0  0  0  0  0  0  0  0  0
   -0.0748    0.7280    1.4085 C   0  0  0  0  0  0  0  0  0  0  0  0
    1.2374    1.0974    1.7174 C   0  0  0  0  0  0  0  0  0  0  0  0
    2.2893    0.6845    0.8942 C   0  0  0  0  0  0  0  0  0  0  0  0
    2.0250   -0.0933   -0.2321 C   0  0  0  0  0  0  0  0  0  0  0  0
    0.7072   -0.4602   -0.5403 C   0  0  0  0  0  0  0  0  0  0  0  0
    3.1274   -0.5370   -1.1082 C   0  0  0  0  0  0  0  0  0  0  0  0
    2.9286   -1.2193   -2.1045 O   0  0  0  0  0  0  0  0  0  0  0  0
    4.4998   -0.1310   -0.7472 C   0  0  0  0  0  0  0  0  0  0  0  0
    4.7521    0.6146    0.3310 C   0  0  0  0  0  0  0  0  0  0  0  0
    3.6733    1.0771    1.2258 C   0  0  0  0  0  0  0  0  0  0  0  0
    3.9355    1.7635    2.2045 O   0  0  0  0  0  0  0  0  0  0  0  0
   -1.5323    2.1133   -0.5842 H   0  0  0  0  0  0  0  0  0  0  0  0
   -3.1451    2.4043   -0.9689 H   0  0  0  0  0  0  0  0  0  0  0  0
   -4.8527    0.7638   -0.7891 H   0  0  0  0  0  0  0  0  0  0  0  0
   -5.4087   -1.6321   -0.6828 H   0  0  0  0  0  0  0  0  0  0  0  0
   -3.6432   -3.2984   -0.1680 H   0  0  0  0  0  0  0  0  0  0  0  0
   -1.3391   -2.5558    0.2805 H   0  0  0  0  0  0  0  0  0  0  0  0
   -0.8865    1.0533    2.0595 H   0  0  0  0  0  0  0  0  0  0  0  0
    1.4313    1.7037    2.6006 H   0  0  0  0  0  0  0  0  0  0  0  0
    0.5098   -1.0650   -1.4255 H   0  0  0  0  0  0  0  0  0  0  0  0
    5.2903   -0.4717   -1.4061 H   0  0  0  0  0  0  0  0  0  0  0  0
    5.7591    0.9143    0.5979 H   0  0  0  0  0  0  0  0  0  0  0  0
  1  2  1  0
  2  3  2  0
  3  4  1  0
  4  5  2  0
  5  6  1  0
  6  7  2  0
  7  8  1  0
  8  9  2  0
  9 10  1  0
 10 11  2  0
 11 12  1  0
 12 13  2  0
 12 14  1  0
 14 15  2  0
 14 16  1  0
 16 17  2  0
 17 18  1  0
 18 19  2  0
  7  2  1  0
 13  8  1  0
 18 11  1  0
  1 20  1  0
  1 21  1  0
  3 22  1  0
  4 23  1  0
  5 24  1  0
  6 25  1  0
  9 26  1  0
 10 27  1  0
 13 28  1  0
 16 29  1  0
 17 30  1  0
M  END
