
     RDKit          3D

 33 36  0  0  0  0  0  0  0  0999 V2000
   -3.1136    1.7834   -0.7485 N   0  0  0  0  0  0  0  0  0  0  0  0
   -3.5199    0.5182   -0.2780 C   0  0  0  0  0  0  0  0  0  0  0  0
   -4.8940    0.2677   -0.1477 C   0  0  0  0  0  0  0  0  0  0  0  0
   -5.3597   -0.9269    0.4030 C   0  0  0  0  0  0  0  0  0  0  0  0
   -4.4552   -1.8738    0.8683 C   0  0  0  0  0  0  0  0  0  0  0  0
   -3.0860   -1.6154    0.7998 C   0  0  0  0  0  0  0  0  0  0  0  0
   -2.5960   -0.4137    0.2511 C   0  0  0  0  0  0  0  0  0  0  0  0
   -1.1409   -0.1791    0.2382 C   0  0  0  0  0  0  0  0  0  0  0  0
   -0.5698    0.8078    1.0432 C   0  0  0  0  0  0  0  0  0  0  0  0
    0.8113    1.0360    1.0401 C   0  0  0  0  0  0  0  0  0  0  0  0
    1.6707    0.2655    0.2168 C   0  0  0  0  0  0  0  0  0  0  0  0
    1.0898   -0.7190   -0.5813 C   0  0  0  0  0  0  0  0  0  0  0  0
   -0.3018   -0.9519   -0.5806 C   0  0  0  0  0  0  0  0  0  0  0  0
    2.2672   -1.5517   -1.5099 S   0  0  0  0  0  0  0  0  0  0  0  0
    3.5631   -0.6264   -0.8729 C   0  0  0  0  0  0  0  0  0  0  0  0
    4.9294   -0.7545   -1.1953 C   0  0  0  0  0  0  0  0  0  0  0  0
    5.8550    0.0878   -0.5769 C   0  0  0  0  0  0  0  0  0  0  0  0
    5.4361    1.0377    0.3421 C   0  0  0  0  0  0  0  0  0  0  0  0
    4.0797    1.1604    0.6581 C   0  0  0  0  0  0  0  0  0  0  0  0
    3.1115    0.3198    0.0477 C   0  0  0  0  0  0  0  0  0  0  0  0
   -3.7648    2.1989   -1.4062 H   0  0  0  0  0  0  0  0  0  0  0  0
   -2.1600    1.7842   -1.1024 H   0  0  0  0  0  0  0  0  0  0  0  0
   -5.6163    1.0088   -0.4803 H   0  0  0  0  0  0  0  0  0  0  0  0
   -6.4282   -1.1094    0.4788 H   0  0  0  0  0  0  0  0  0  0  0  0
   -4.8122   -2.8034    1.3034 H   0  0  0  0  0  0  0  0  0  0  0  0
   -2.3911   -2.3526    1.1981 H   0  0  0  0  0  0  0  0  0  0  0  0
   -1.2054    1.4163    1.6857 H   0  0  0  0  0  0  0  0  0  0  0  0
    1.2215    1.8137    1.6793 H   0  0  0  0  0  0  0  0  0  0  0  0
   -0.7214   -1.7259   -1.2193 H   0  0  0  0  0  0  0  0  0  0  0  0
    5.2597   -1.4984   -1.9151 H   0  0  0  0  0  0  0  0  0  0  0  0
    6.9111   -0.0041   -0.8194 H   0  0  0  0  0  0  0  0  0  0  0  0
    6.1626    1.6902    0.8202 H   0  0  0  0  0  0  0  0  0  0  0  0
    3.7678    1.9100    1.3811 H   0  0  0  0  0  0  0  0  0  0  0  0
  1  2  1  0
  2  3  2  0
  3  4  1  0
  4  5  2  0
  5  6  1  0
  6  7  2  0
  7  8  1  0
  8  9  2  0
  9 10  1  0
 10 11  2  0
 11 12  1  0
 12 13  2  0
 12 14  1  0
 14 15  1  0
 15 16  2  0
 16 17  1  0
 17 18  2  0
 18 19  1  0
 19 20  2  0
  7  2  1  0
 13  8  1  0
 20 15  1  0
 20 11  1  0
  1 21  1  0
  1 22  1  0
  3 23  1  0
  4 24  1  0
  5 25  1  0
  6 26  1  0
  9 27  1  0
 10 28  1  0
 13 29  1  0
 16 30  1  0
 17 31  1  0
 18 32  1  0
 19 33  1  0
M  END
