
     RDKit          3D

 28 30  0  0  0  0  0  0  0  0999 V2000
   -2.0480   -0.4368    2.1849 N   0  0  0  0  0  0  0  0  0  0  0  0
   -2.4433    0.0094    0.9092 C   0  0  0  0  0  0  0  0  0  0  0  0
   -3.8054    0.2629    0.6881 C   0  0  0  0  0  0  0  0  0  0  0  0
   -4.2778    0.6175   -0.5758 C   0  0  0  0  0  0  0  0  0  0  0  0
   -3.3984    0.6844   -1.6491 C   0  0  0  0  0  0  0  0  0  0  0  0
   -2.0512    0.3757   -1.4600 C   0  0  0  0  0  0  0  0  0  0  0  0
   -1.5547    0.0108   -0.1920 C   0  0  0  0  0  0  0  0  0  0  0  0
   -0.1359   -0.3521   -0.0605 C   0  0  0  0  0  0  0  0  0  0  0  0
    0.2670   -1.6198    0.3409 C   0  0  0  0  0  0  0  0  0  0  0  0
    1.5563   -2.0149    0.4838 N   0  0  0  0  0  0  0  0  0  0  0  0
    2.5303   -1.1446    0.2175 C   0  0  0  0  0  0  0  0  0  0  0  0
    3.7951   -1.5458    0.3613 N   0  0  0  0  0  0  0  0  0  0  0  0
    4.7933   -0.6754    0.0955 C   0  0  0  0  0  0  0  0  0  0  0  0
    4.5923    0.6246   -0.3205 C   0  0  0  0  0  0  0  0  0  0  0  0
    3.2832    1.0537   -0.4719 C   0  0  0  0  0  0  0  0  0  0  0  0
    2.2310    0.1665   -0.2024 C   0  0  0  0  0  0  0  0  0  0  0  0
    0.8879    0.5533   -0.3388 C   0  0  0  0  0  0  0  0  0  0  0  0
   -2.6473   -0.1114    2.9370 H   0  0  0  0  0  0  0  0  0  0  0  0
   -1.0653   -0.2768    2.3907 H   0  0  0  0  0  0  0  0  0  0  0  0
   -4.5138    0.1887    1.5096 H   0  0  0  0  0  0  0  0  0  0  0  0
   -5.3342    0.8272   -0.7214 H   0  0  0  0  0  0  0  0  0  0  0  0
   -3.7624    0.9522   -2.6375 H   0  0  0  0  0  0  0  0  0  0  0  0
   -1.3857    0.3950   -2.3215 H   0  0  0  0  0  0  0  0  0  0  0  0
   -0.4662   -2.3905    0.5725 H   0  0  0  0  0  0  0  0  0  0  0  0
    5.7955   -1.0722    0.2331 H   0  0  0  0  0  0  0  0  0  0  0  0
    5.4304    1.2823   -0.5202 H   0  0  0  0  0  0  0  0  0  0  0  0
    3.0858    2.0715   -0.7975 H   0  0  0  0  0  0  0  0  0  0  0  0
    0.6413    1.5646   -0.6549 H   0  0  0  0  0  0  0  0  0  0  0  0
  1  2  1  0
  2  3  2  0
  3  4  1  0
  4  5  2  0
  5  6  1  0
  6  7  2  0
  7  8  1  0
  8  9  2  0
  9 10  1  0
 10 11  2  0
 11 12  1  0
 12 13  2  0
 13 14  1  0
 14 15  2  0
 15 16  1  0
 16 17  2  0
  7  2  1  0
 17  8  1  0
 16 11  1  0
  1 18  1  0
  1 19  1  0
  3 20  1  0
  4 21  1  0
  5 22  1  0
  6 23  1  0
  9 24  1  0
 13 25  1  0
 14 26  1  0
 15 27  1  0
 17 28  1  0
M  END
