
     RDKit          3D

 26 28  0  0  0  0  0  0  0  0999 V2000
   -2.1941   -1.7858   -0.8394 N   0  0  0  0  0  0  0  0  0  0  0  0
   -2.3807   -0.5361   -0.2097 C   0  0  0  0  0  0  0  0  0  0  0  0
   -3.6950   -0.1391    0.0873 C   0  0  0  0  0  0  0  0  0  0  0  0
   -3.9551    1.0601    0.7505 C   0  0  0  0  0  0  0  0  0  0  0  0
   -2.9007    1.8655    1.1586 C   0  0  0  0  0  0  0  0  0  0  0  0
   -1.5880    1.4505    0.9339 C   0  0  0  0  0  0  0  0  0  0  0  0
   -1.2989    0.2304    0.2855 C   0  0  0  0  0  0  0  0  0  0  0  0
    0.1067   -0.1890    0.1687 C   0  0  0  0  0  0  0  0  0  0  0  0
    0.5541   -1.4519    0.5298 C   0  0  0  0  0  0  0  0  0  0  0  0
    1.8487   -1.8332    0.4326 N   0  0  0  0  0  0  0  0  0  0  0  0
    2.7118   -0.9181   -0.0213 C   0  0  0  0  0  0  0  0  0  0  0  0
    4.0019   -1.2657   -0.1272 N   0  0  0  0  0  0  0  0  0  0  0  0
    4.8527   -0.3247   -0.5830 C   0  0  0  0  0  0  0  0  0  0  0  0
    4.4281    0.9387   -0.9286 C   0  0  0  0  0  0  0  0  0  0  0  0
    3.1357    1.3109   -0.8329 N   0  0  0  0  0  0  0  0  0  0  0  0
    2.2696    0.3926   -0.3819 C   0  0  0  0  0  0  0  0  0  0  0  0
    0.9812    0.7431   -0.2823 N   0  0  0  0  0  0  0  0  0  0  0  0
   -3.0131   -2.0939   -1.3579 H   0  0  0  0  0  0  0  0  0  0  0  0
   -1.3689   -1.8114   -1.4345 H   0  0  0  0  0  0  0  0  0  0  0  0
   -4.5354   -0.7589   -0.2157 H   0  0  0  0  0  0  0  0  0  0  0  0
   -4.9805    1.3622    0.9467 H   0  0  0  0  0  0  0  0  0  0  0  0
   -3.0939    2.8057    1.6686 H   0  0  0  0  0  0  0  0  0  0  0  0
   -0.7719    2.0807    1.2869 H   0  0  0  0  0  0  0  0  0  0  0  0
   -0.1231   -2.2056    0.9215 H   0  0  0  0  0  0  0  0  0  0  0  0
    5.8931   -0.6198   -0.6619 H   0  0  0  0  0  0  0  0  0  0  0  0
    5.1160    1.6927   -1.2945 H   0  0  0  0  0  0  0  0  0  0  0  0
  1  2  1  0
  2  3  2  0
  3  4  1  0
  4  5  2  0
  5  6  1  0
  6  7  2  0
  7  8  1  0
  8  9  2  0
  9 10  1  0
 10 11  2  0
 11 12  1  0
 12 13  2  0
 13 14  1  0
 14 15  2  0
 15 16  1  0
 16 17  2  0
  7  2  1  0
 17  8  1  0
 16 11  1  0
  1 18  1  0
  1 19  1  0
  3 20  1  0
  4 21  1  0
  5 22  1  0
  6 23  1  0
  9 24  1  0
 13 25  1  0
 14 26  1  0
M  END
