
     RDKit          3D

 19 20  0  0  0  0  0  0  0  0999 V2000
    0.1144    2.2808   -0.1346 N   0  0  0  0  0  0  0  0  0  0  0  0
    0.6872    1.0188    0.1220 C   0  0  0  0  0  0  0  0  0  0  0  0
    2.0818    0.9626    0.2853 C   0  0  0  0  0  0  0  0  0  0  0  0
    2.7500   -0.2563    0.4084 C   0  0  0  0  0  0  0  0  0  0  0  0
    2.0374   -1.4459    0.3319 C   0  0  0  0  0  0  0  0  0  0  0  0
    0.6583   -1.4134    0.1218 C   0  0  0  0  0  0  0  0  0  0  0  0
   -0.0342   -0.1916    0.0004 C   0  0  0  0  0  0  0  0  0  0  0  0
   -1.4821   -0.2381   -0.2190 C   0  0  0  0  0  0  0  0  0  0  0  0
   -2.1328   -1.4022   -0.5886 N   0  0  0  0  0  0  0  0  0  0  0  0
   -3.3799   -1.0158   -0.6622 C   0  0  0  0  0  0  0  0  0  0  0  0
   -3.5703    0.2892   -0.3548 O   0  0  0  0  0  0  0  0  0  0  0  0
   -2.3141    0.8083   -0.0505 N   0  0  0  0  0  0  0  0  0  0  0  0
    0.5752    3.0502    0.3391 H   0  0  0  0  0  0  0  0  0  0  0  0
   -0.8980    2.2899    0.0053 H   0  0  0  0  0  0  0  0  0  0  0  0
    2.6626    1.8818    0.3086 H   0  0  0  0  0  0  0  0  0  0  0  0
    3.8279   -0.2730    0.5467 H   0  0  0  0  0  0  0  0  0  0  0  0
    2.5522   -2.3991    0.4196 H   0  0  0  0  0  0  0  0  0  0  0  0
    0.1198   -2.3570    0.0477 H   0  0  0  0  0  0  0  0  0  0  0  0
   -4.2551   -1.5890   -0.9270 H   0  0  0  0  0  0  0  0  0  0  0  0
  1  2  1  0
  2  3  2  0
  3  4  1  0
  4  5  2  0
  5  6  1  0
  6  7  2  0
  7  8  1  0
  8  9  1  0
  9 10  2  0
 10 11  1  0
 11 12  1  0
  7  2  1  0
 12  8  2  0
  1 13  1  0
  1 14  1  0
  3 15  1  0
  4 16  1  0
  5 17  1  0
  6 18  1  0
 10 19  1  0
M  END
