
     RDKit          3D

 46 53  0  0  0  0  0  0  0  0999 V2000
    5.2991   -0.4448   -1.6715 Si  0  0  0  0  0  4  0  0  0  0  0  0
    7.1364   -0.8247   -1.2797 C   0  0  0  0  0  0  0  0  0  0  0  0
    7.3497   -0.9065    0.0521 C   0  0  0  0  0  0  0  0  0  0  0  0
    6.1877   -0.6979    0.8601 C   0  0  0  0  0  0  0  0  0  0  0  0
    6.0305   -0.7168    2.2194 C   0  0  0  0  0  0  0  0  0  0  0  0
    4.3834   -0.4105    2.6460 S   0  0  0  0  0  0  0  0  0  0  0  0
    3.8876   -0.2412    0.9978 C   0  0  0  0  0  0  0  0  0  0  0  0
    4.9675   -0.4279    0.1857 C   0  0  0  0  0  0  0  0  0  0  0  0
    2.5048    0.0472    0.6926 C   0  0  0  0  0  0  0  0  0  0  0  0
    1.4403   -0.8616    0.8371 C   0  0  0  0  0  0  0  0  0  0  0  0
    0.0635   -0.5708    0.5077 C   0  0  0  0  0  0  0  0  0  0  0  0
   -0.8883   -1.5542    0.6953 C   0  0  0  0  0  0  0  0  0  0  0  0
   -2.2078   -1.4277    0.4291 N   0  0  0  0  0  0  0  0  0  0  0  0
   -2.6995   -0.2715   -0.0600 C   0  0  0  0  0  0  0  0  0  0  0  0
   -1.8439    0.8184   -0.3002 C   0  0  0  0  0  0  0  0  0  0  0  0
   -2.4596    1.9656   -0.8092 C   0  0  0  0  0  0  0  0  0  0  0  0
   -3.7760    2.1158   -1.0843 N   0  0  0  0  0  0  0  0  0  0  0  0
   -4.5923    1.0915   -0.8591 C   0  0  0  0  0  0  0  0  0  0  0  0
   -5.9615    1.3056   -1.1648 C   0  0  0  0  0  0  0  0  0  0  0  0
   -7.0055    0.3691   -1.0094 C   0  0  0  0  0  0  0  0  0  0  0  0
   -6.5274   -0.8313   -0.5050 C   0  0  0  0  0  0  0  0  0  0  0  0
   -7.3602   -1.8968   -0.2685 C   0  0  0  0  0  0  0  0  0  0  0  0
   -6.4886   -3.2370    0.3516 S   0  0  0  0  0  0  0  0  0  0  0  0
   -4.9983   -2.3799    0.2994 C   0  0  0  0  0  0  0  0  0  0  0  0
   -5.1468   -1.0973   -0.1791 C   0  0  0  0  0  0  0  0  0  0  0  0
   -4.0891   -0.1376   -0.3404 C   0  0  0  0  0  0  0  0  0  0  0  0
   -0.4261    0.6731   -0.0111 C   0  0  0  0  0  0  0  0  0  0  0  0
    0.6872    1.5730   -0.1380 C   0  0  0  0  0  0  0  0  0  0  0  0
    0.7170    2.8748   -0.5782 C   0  0  0  0  0  0  0  0  0  0  0  0
    1.9898    3.3711   -0.5281 O   0  0  0  0  0  0  0  0  0  0  0  0
    2.7965    2.3858   -0.0479 C   0  0  0  0  0  0  0  0  0  0  0  0
    2.0506    1.2621    0.1955 C   0  0  0  0  0  0  0  0  0  0  0  0
    5.1640    0.8849   -2.3159 H   0  0  0  0  0  0  0  0  0  0  0  0
    4.6656   -1.5791   -2.3886 H   0  0  0  0  0  0  0  0  0  0  0  0
    7.8566   -0.9459   -2.0727 H   0  0  0  0  0  0  0  0  0  0  0  0
    8.3214   -1.1146    0.4852 H   0  0  0  0  0  0  0  0  0  0  0  0
    6.7681   -0.8939    2.9894 H   0  0  0  0  0  0  0  0  0  0  0  0
    1.6820   -1.8555    1.2220 H   0  0  0  0  0  0  0  0  0  0  0  0
   -0.6184   -2.5336    1.0863 H   0  0  0  0  0  0  0  0  0  0  0  0
   -1.9021    2.8639   -1.0339 H   0  0  0  0  0  0  0  0  0  0  0  0
   -6.2295    2.2892   -1.5571 H   0  0  0  0  0  0  0  0  0  0  0  0
   -8.0343    0.5894   -1.2599 H   0  0  0  0  0  0  0  0  0  0  0  0
   -8.4282   -1.9722   -0.4212 H   0  0  0  0  0  0  0  0  0  0  0  0
   -4.1049   -2.8891    0.6301 H   0  0  0  0  0  0  0  0  0  0  0  0
   -0.0014    3.5915   -0.9423 H   0  0  0  0  0  0  0  0  0  0  0  0
    3.8404    2.6478    0.0580 H   0  0  0  0  0  0  0  0  0  0  0  0
  1  2  1  0
  2  3  2  0
  3  4  1  0
  4  5  2  0
  5  6  1  0
  6  7  1  0
  7  8  2  0
  7  9  1  0
  9 10  2  0
 10 11  1  0
 11 12  2  0
 12 13  1  0
 13 14  2  0
 14 15  1  0
 15 16  1  0
 16 17  2  0
 17 18  1  0
 18 19  1  0
 19 20  2  0
 20 21  1  0
 21 22  2  0
 22 23  1  0
 23 24  1  0
 24 25  2  0
 25 26  1  0
 15 27  2  0
 27 28  1  0
 28 29  2  0
 29 30  1  0
 30 31  1  0
 31 32  2  0
  8  1  1  0
 32  9  1  0
  8  4  1  0
 27 11  1  0
 32 28  1  0
 26 14  1  0
 26 18  2  0
 25 21  1  0
  1 33  1  0
  1 34  1  0
  2 35  1  0
  3 36  1  0
  5 37  1  0
 10 38  1  0
 12 39  1  0
 16 40  1  0
 19 41  1  0
 20 42  1  0
 22 43  1  0
 24 44  1  0
 29 45  1  0
 31 46  1  0
M  END
