
     RDKit          3D

 33 34  0  0  0  0  0  0  0  0999 V2000
   -3.4750    0.7779    2.3420 O   0  0  0  0  0  0  0  0  0  0  0  0
   -4.1042    1.1214    1.3281 N   0  0  0  0  0  4  0  0  0  0  0  0
   -5.0085    1.9692    1.3129 O   0  0  0  0  0  1  0  0  0  0  0  0
   -3.7745    0.4599    0.0622 C   0  0  0  0  0  0  0  0  0  0  0  0
   -4.8266    0.2716   -0.8547 C   0  0  0  0  0  0  0  0  0  0  0  0
   -4.5749   -0.3473   -2.0757 C   0  0  0  0  0  0  0  0  0  0  0  0
   -3.2813   -0.7599   -2.3761 C   0  0  0  0  0  0  0  0  0  0  0  0
   -2.9599   -1.5041   -3.8948 Cl  0  0  0  0  0  0  0  0  0  0  0  0
   -2.2358   -0.5689   -1.4638 C   0  0  0  0  0  0  0  0  0  0  0  0
   -2.4537    0.0184   -0.2041 C   0  0  0  0  0  0  0  0  0  0  0  0
   -1.3864    0.2934    0.6706 N   0  0  0  0  0  0  0  0  0  0  0  0
   -0.1377   -0.4691    0.5785 C   0  0  0  0  0  0  0  0  0  0  0  0
    0.8203   -0.0761    1.7118 C   0  0  0  0  0  0  0  0  0  0  0  0
    2.0402   -0.8152    1.6351 O   0  0  0  0  0  0  0  0  0  0  0  0
    3.0547   -0.3316    0.8578 C   0  0  0  0  0  0  0  0  0  0  0  0
    3.0157    0.8155    0.0611 C   0  0  0  0  0  0  0  0  0  0  0  0
    4.1365    1.1854   -0.6896 C   0  0  0  0  0  0  0  0  0  0  0  0
    5.2878    0.4087   -0.6414 C   0  0  0  0  0  0  0  0  0  0  0  0
    6.3574    0.7676   -1.3628 F   0  0  0  0  0  0  0  0  0  0  0  0
    5.3420   -0.7343    0.1436 C   0  0  0  0  0  0  0  0  0  0  0  0
    4.2231   -1.1027    0.8921 C   0  0  0  0  0  0  0  0  0  0  0  0
   -5.8374    0.6058   -0.6269 H   0  0  0  0  0  0  0  0  0  0  0  0
   -5.3828   -0.4937   -2.7885 H   0  0  0  0  0  0  0  0  0  0  0  0
   -1.2412   -0.8858   -1.7646 H   0  0  0  0  0  0  0  0  0  0  0  0
   -1.7189    0.3698    1.6408 H   0  0  0  0  0  0  0  0  0  0  0  0
   -0.3389   -1.5459    0.6386 H   0  0  0  0  0  0  0  0  0  0  0  0
    0.3520   -0.2832   -0.3830 H   0  0  0  0  0  0  0  0  0  0  0  0
    0.3569   -0.3460    2.6688 H   0  0  0  0  0  0  0  0  0  0  0  0
    0.9892    1.0057    1.7692 H   0  0  0  0  0  0  0  0  0  0  0  0
    2.1347    1.4451   -0.0058 H   0  0  0  0  0  0  0  0  0  0  0  0
    4.1171    2.0750   -1.3114 H   0  0  0  0  0  0  0  0  0  0  0  0
    6.2487   -1.3295    0.1701 H   0  0  0  0  0  0  0  0  0  0  0  0
    4.2611   -1.9972    1.5096 H   0  0  0  0  0  0  0  0  0  0  0  0
  1  2  2  0
  2  3  1  0
  2  4  1  0
  4  5  2  0
  5  6  1  0
  6  7  2  0
  7  8  1  0
  7  9  1  0
  9 10  2  0
 10 11  1  0
 11 12  1  0
 12 13  1  0
 13 14  1  0
 14 15  1  0
 15 16  2  0
 16 17  1  0
 17 18  2  0
 18 19  1  0
 18 20  1  0
 20 21  2  0
 10  4  1  0
 21 15  1  0
  5 22  1  0
  6 23  1  0
  9 24  1  0
 11 25  1  0
 12 26  1  0
 12 27  1  0
 13 28  1  0
 13 29  1  0
 16 30  1  0
 17 31  1  0
 20 32  1  0
 21 33  1  0
M  CHG  2   2   1   3  -1
M  END
