
     RDKit          3D

 44 45  0  0  0  0  0  0  0  0999 V2000
    6.6583    0.7696    1.7585 O   0  0  0  0  0  0  0  0  0  0  0  0
    6.2390    0.9584    0.6074 N   0  0  0  0  0  4  0  0  0  0  0  0
    6.8332    1.6199   -0.2562 O   0  0  0  0  0  1  0  0  0  0  0  0
    4.9513    0.3563    0.2415 C   0  0  0  0  0  0  0  0  0  0  0  0
    4.2486   -0.4052    1.1820 C   0  0  0  0  0  0  0  0  0  0  0  0
    3.0230   -0.9757    0.8278 C   0  0  0  0  0  0  0  0  0  0  0  0
    2.4860   -0.7896   -0.4569 C   0  0  0  0  0  0  0  0  0  0  0  0
    1.1523   -1.4117   -0.8320 C   0  0  0  0  0  0  0  0  0  0  0  0
   -0.0395   -0.5638   -0.6883 N   0  0  0  0  0  0  0  0  0  0  0  0
   -0.3354   -0.1698    0.7033 C   0  0  0  0  0  0  0  0  0  0  0  0
   -0.7515   -1.3152    1.6486 C   0  0  0  0  0  0  0  0  0  0  0  0
   -1.8130   -2.1280    1.1412 O   0  0  0  0  0  0  0  0  0  0  0  0
   -3.1228   -1.7723    1.5992 C   0  0  0  0  0  0  0  0  0  0  0  0
   -3.7874   -0.6966    0.7366 C   0  0  0  0  0  0  0  0  0  0  0  0
   -3.4586    0.5992    1.2388 O   0  0  0  0  0  0  0  0  0  0  0  0
   -4.0094    1.6856    0.4819 C   0  0  0  0  0  0  0  0  0  0  0  0
   -3.5067    1.7753   -0.9661 C   0  0  0  0  0  0  0  0  0  0  0  0
   -2.0799    1.8213   -0.9754 O   0  0  0  0  0  0  0  0  0  0  0  0
   -1.4960    1.0136   -1.9970 C   0  0  0  0  0  0  0  0  0  0  0  0
   -0.0626    0.5868   -1.6141 C   0  0  0  0  0  0  0  0  0  0  0  0
    3.2116   -0.0307   -1.3898 C   0  0  0  0  0  0  0  0  0  0  0  0
    4.4382    0.5446   -1.0469 C   0  0  0  0  0  0  0  0  0  0  0  0
    4.6368   -0.5646    2.1859 H   0  0  0  0  0  0  0  0  0  0  0  0
    2.4868   -1.5711    1.5641 H   0  0  0  0  0  0  0  0  0  0  0  0
    1.2162   -1.7648   -1.8707 H   0  0  0  0  0  0  0  0  0  0  0  0
    1.0179   -2.3383   -0.2597 H   0  0  0  0  0  0  0  0  0  0  0  0
   -1.1538    0.5432    0.7134 H   0  0  0  0  0  0  0  0  0  0  0  0
    0.5114    0.3695    1.1440 H   0  0  0  0  0  0  0  0  0  0  0  0
    0.0999   -1.9843    1.8063 H   0  0  0  0  0  0  0  0  0  0  0  0
   -1.0058   -0.9113    2.6358 H   0  0  0  0  0  0  0  0  0  0  0  0
   -3.7153   -2.6888    1.5058 H   0  0  0  0  0  0  0  0  0  0  0  0
   -3.1036   -1.4994    2.6602 H   0  0  0  0  0  0  0  0  0  0  0  0
   -4.8756   -0.8101    0.7883 H   0  0  0  0  0  0  0  0  0  0  0  0
   -3.4556   -0.8069   -0.2988 H   0  0  0  0  0  0  0  0  0  0  0  0
   -3.7160    2.5972    1.0134 H   0  0  0  0  0  0  0  0  0  0  0  0
   -5.1031    1.6254    0.5065 H   0  0  0  0  0  0  0  0  0  0  0  0
   -3.8788    2.6950   -1.4297 H   0  0  0  0  0  0  0  0  0  0  0  0
   -3.8947    0.9342   -1.5498 H   0  0  0  0  0  0  0  0  0  0  0  0
   -1.4659    1.6137   -2.9132 H   0  0  0  0  0  0  0  0  0  0  0  0
   -2.0927    0.1164   -2.2013 H   0  0  0  0  0  0  0  0  0  0  0  0
    0.4163    0.2934   -2.5562 H   0  0  0  0  0  0  0  0  0  0  0  0
    0.4974    1.4347   -1.2017 H   0  0  0  0  0  0  0  0  0  0  0  0
    2.8245    0.1151   -2.3963 H   0  0  0  0  0  0  0  0  0  0  0  0
    4.9751    1.1300   -1.7904 H   0  0  0  0  0  0  0  0  0  0  0  0
  1  2  2  0
  2  3  1  0
  2  4  1  0
  4  5  2  0
  5  6  1  0
  6  7  2  0
  7  8  1  0
  8  9  1  0
  9 10  1  0
 10 11  1  0
 11 12  1  0
 12 13  1  0
 13 14  1  0
 14 15  1  0
 15 16  1  0
 16 17  1  0
 17 18  1  0
 18 19  1  0
 19 20  1  0
  7 21  1  0
 21 22  2  0
 22  4  1  0
 20  9  1  0
  5 23  1  0
  6 24  1  0
  8 25  1  0
  8 26  1  0
 10 27  1  0
 10 28  1  0
 11 29  1  0
 11 30  1  0
 13 31  1  0
 13 32  1  0
 14 33  1  0
 14 34  1  0
 16 35  1  0
 16 36  1  0
 17 37  1  0
 17 38  1  0
 19 39  1  0
 19 40  1  0
 20 41  1  0
 20 42  1  0
 21 43  1  0
 22 44  1  0
M  CHG  2   2   1   3  -1
M  END
