
     RDKit          3D

 30 32  0  0  0  0  0  0  0  0999 V2000
   -6.9028   -0.3274    0.0182 O   0  0  0  0  0  0  0  0  0  0  0  0
   -6.0515    0.0902   -0.7797 N   0  0  0  0  0  4  0  0  0  0  0  0
   -4.6388   -0.0284   -0.3959 C   0  0  0  0  0  0  0  0  0  0  0  0
   -3.6416    0.4307   -1.2674 C   0  0  0  0  0  0  0  0  0  0  0  0
   -2.2969    0.3170   -0.9003 C   0  0  0  0  0  0  0  0  0  0  0  0
   -4.3001   -0.5997    0.8384 C   0  0  0  0  0  0  0  0  0  0  0  0
   -2.9544   -0.7118    1.2022 C   0  0  0  0  0  0  0  0  0  0  0  0
   -1.9494   -0.2542    0.3347 C   0  0  0  0  0  0  0  0  0  0  0  0
   -0.5820   -0.3690    0.7060 N   0  0  0  0  0  0  0  0  0  0  0  0
    0.4193    0.0601   -0.1019 N   0  0  0  0  0  0  0  0  0  0  0  0
    1.5279   -0.2243    0.6020 C   0  0  0  0  0  0  0  0  0  0  0  0
    1.1269   -0.8203    1.8180 C   0  0  0  0  0  0  0  0  0  0  0  0
   -0.2017   -0.9138    1.8886 N   0  0  0  0  0  0  0  0  0  0  0  0
    2.8744    0.0710    0.1084 C   0  0  0  0  0  0  0  0  0  0  0  0
    3.0540    0.6753   -1.1463 C   0  0  0  0  0  0  0  0  0  0  0  0
    4.3338    0.9623   -1.6287 C   0  0  0  0  0  0  0  0  0  0  0  0
    5.4532    0.6489   -0.8628 C   0  0  0  0  0  0  0  0  0  0  0  0
    5.2939    0.0492    0.3841 C   0  0  0  0  0  0  0  0  0  0  0  0
    4.0133   -0.2384    0.8678 C   0  0  0  0  0  0  0  0  0  0  0  0
   -6.3093    0.6009   -1.8790 O   0  0  0  0  0  1  0  0  0  0  0  0
   -3.8911    0.8762   -2.2286 H   0  0  0  0  0  0  0  0  0  0  0  0
   -1.5309    0.6774   -1.5861 H   0  0  0  0  0  0  0  0  0  0  0  0
   -5.0647   -0.9601    1.5243 H   0  0  0  0  0  0  0  0  0  0  0  0
   -2.7037   -1.1576    2.1642 H   0  0  0  0  0  0  0  0  0  0  0  0
    1.7274   -1.1837    2.6399 H   0  0  0  0  0  0  0  0  0  0  0  0
    2.1933    0.9292   -1.7625 H   0  0  0  0  0  0  0  0  0  0  0  0
    4.4528    1.4304   -2.6026 H   0  0  0  0  0  0  0  0  0  0  0  0
    6.4489    0.8720   -1.2376 H   0  0  0  0  0  0  0  0  0  0  0  0
    6.1682   -0.1957    0.9826 H   0  0  0  0  0  0  0  0  0  0  0  0
    3.9318   -0.7064    1.8449 H   0  0  0  0  0  0  0  0  0  0  0  0
  1  2  2  0
  2  3  1  0
  3  4  2  0
  4  5  1  0
  3  6  1  0
  6  7  2  0
  7  8  1  0
  8  9  1  0
  9 10  1  0
 10 11  2  0
 11 12  1  0
 12 13  2  0
 11 14  1  0
 14 15  2  0
 15 16  1  0
 16 17  2  0
 17 18  1  0
 18 19  2  0
  2 20  1  0
  8  5  2  0
 13  9  1  0
 19 14  1  0
  4 21  1  0
  5 22  1  0
  6 23  1  0
  7 24  1  0
 12 25  1  0
 15 26  1  0
 16 27  1  0
 17 28  1  0
 18 29  1  0
 19 30  1  0
M  CHG  2   2   1  20  -1
M  END
