
     RDKit          3D

 36 37  0  0  0  0  0  0  0  0999 V2000
    7.8320    0.0042    1.2817 O   0  0  0  0  0  0  0  0  0  0  0  0
    7.3456    0.0554    0.1429 N   0  0  0  0  0  4  0  0  0  0  0  0
    5.8858   -0.0385    0.0185 C   0  0  0  0  0  0  0  0  0  0  0  0
    5.0990   -0.1926    1.1660 C   0  0  0  0  0  0  0  0  0  0  0  0
    3.7086   -0.2815    1.0414 C   0  0  0  0  0  0  0  0  0  0  0  0
    3.0961   -0.2075   -0.2182 C   0  0  0  0  0  0  0  0  0  0  0  0
    3.8999   -0.0696   -1.3591 C   0  0  0  0  0  0  0  0  0  0  0  0
    5.2910    0.0212   -1.2473 C   0  0  0  0  0  0  0  0  0  0  0  0
    1.6415   -0.3271   -0.3882 C   0  0  0  0  0  0  0  0  0  0  0  0
    0.7442    0.2283    0.4425 C   0  0  0  0  0  0  0  0  0  0  0  0
   -0.7099    0.1076    0.2722 C   0  0  0  0  0  0  0  0  0  0  0  0
   -1.5193   -0.0187    1.3997 C   0  0  0  0  0  0  0  0  0  0  0  0
   -2.9152   -0.1098    1.2760 C   0  0  0  0  0  0  0  0  0  0  0  0
   -3.5665   -0.0563    0.0317 C   0  0  0  0  0  0  0  0  0  0  0  0
   -4.9570   -0.1655   -0.0878 N   0  0  0  0  0  0  0  0  0  0  0  0
   -5.7868    0.0074    1.1032 C   0  0  0  0  0  0  0  0  0  0  0  0
   -5.5905    0.1928   -1.3555 C   0  0  0  0  0  0  0  0  0  0  0  0
   -2.7263    0.0727   -1.0878 C   0  0  0  0  0  0  0  0  0  0  0  0
   -1.3291    0.1635   -0.9753 C   0  0  0  0  0  0  0  0  0  0  0  0
    8.0064    0.1807   -0.8981 O   0  0  0  0  0  1  0  0  0  0  0  0
    5.5462   -0.2507    2.1562 H   0  0  0  0  0  0  0  0  0  0  0  0
    3.1100   -0.4213    1.9394 H   0  0  0  0  0  0  0  0  0  0  0  0
    3.4465   -0.0222   -2.3479 H   0  0  0  0  0  0  0  0  0  0  0  0
    5.8884    0.1359   -2.1495 H   0  0  0  0  0  0  0  0  0  0  0  0
    1.3168   -0.9018   -1.2526 H   0  0  0  0  0  0  0  0  0  0  0  0
    1.0637    0.8032    1.3083 H   0  0  0  0  0  0  0  0  0  0  0  0
   -1.0795   -0.0629    2.3933 H   0  0  0  0  0  0  0  0  0  0  0  0
   -3.4781   -0.2280    2.1967 H   0  0  0  0  0  0  0  0  0  0  0  0
   -6.8514   -0.0956    0.8647 H   0  0  0  0  0  0  0  0  0  0  0  0
   -5.5723   -0.7632    1.8514 H   0  0  0  0  0  0  0  0  0  0  0  0
   -5.6418    1.0000    1.5437 H   0  0  0  0  0  0  0  0  0  0  0  0
   -5.2495   -0.4585   -2.1674 H   0  0  0  0  0  0  0  0  0  0  0  0
   -6.6779    0.0653   -1.3067 H   0  0  0  0  0  0  0  0  0  0  0  0
   -5.3920    1.2390   -1.6133 H   0  0  0  0  0  0  0  0  0  0  0  0
   -3.1359    0.1088   -2.0925 H   0  0  0  0  0  0  0  0  0  0  0  0
   -0.7427    0.2857   -1.8822 H   0  0  0  0  0  0  0  0  0  0  0  0
  1  2  2  0
  2  3  1  0
  3  4  2  0
  4  5  1  0
  5  6  2  0
  6  7  1  0
  7  8  2  0
  6  9  1  0
  9 10  2  3
 10 11  1  0
 11 12  2  0
 12 13  1  0
 13 14  2  0
 14 15  1  0
 15 16  1  0
 15 17  1  0
 14 18  1  0
 18 19  2  0
  2 20  1  0
  8  3  1  0
 19 11  1  0
  4 21  1  0
  5 22  1  0
  7 23  1  0
  8 24  1  0
  9 25  1  0
 10 26  1  0
 12 27  1  0
 13 28  1  0
 16 29  1  0
 16 30  1  0
 16 31  1  0
 17 32  1  0
 17 33  1  0
 17 34  1  0
 18 35  1  0
 19 36  1  0
M  CHG  2   2   1  20  -1
M  END
