
     RDKit          3D

 38 39  0  0  0  0  0  0  0  0999 V2000
    4.1325   -1.3968    1.0230 O   0  0  0  0  0  0  0  0  0  0  0  0
    3.8018   -0.2536    0.7126 C   0  0  0  0  0  0  0  0  0  0  0  0
    2.4209    0.0064    0.2342 C   0  0  0  0  0  0  0  0  0  0  0  0
    1.4405   -0.8512    0.5602 C   0  0  0  0  0  0  0  0  0  0  0  0
    0.1199   -0.6171    0.0983 C   0  0  0  0  0  0  0  0  0  0  0  0
   -0.3321    0.4228   -0.5912 N   0  0  0  0  0  0  0  0  0  0  0  0
   -1.6630    0.2075   -0.7483 C   0  0  0  0  0  0  0  0  0  0  0  0
   -2.0566   -0.9574   -0.1718 C   0  0  0  0  0  0  0  0  0  0  0  0
   -3.4096   -1.3966   -0.1654 C   0  0  0  0  0  0  0  0  0  0  0  0
   -4.2605   -0.5539   -0.8881 N   0  0  0  0  0  0  0  0  0  0  0  0
   -5.6614   -0.9216   -0.9432 C   0  0  0  0  0  0  0  0  0  0  0  0
   -3.8965    0.6831   -1.4548 C   0  0  0  0  0  0  0  0  0  0  0  0
   -2.5493    1.0427   -1.3840 N   0  0  0  0  0  0  0  0  0  0  0  0
   -2.0847    2.2857   -1.9696 C   0  0  0  0  0  0  0  0  0  0  0  0
   -4.7370    1.4172   -1.9837 O   0  0  0  0  0  0  0  0  0  0  0  0
   -3.7855   -2.3970    0.4368 O   0  0  0  0  0  0  0  0  0  0  0  0
   -0.9122   -1.5095    0.3505 N   0  0  0  0  0  0  0  0  0  0  0  0
   -0.8673   -2.7901    1.0179 C   0  0  0  0  0  0  0  0  0  0  0  0
    4.6643    0.8280    0.7698 N   0  0  0  0  0  0  0  0  0  0  0  0
    6.0677    0.5816    1.0580 C   0  0  0  0  0  0  0  0  0  0  0  0
    4.2886    2.2253    0.6022 C   0  0  0  0  0  0  0  0  0  0  0  0
    2.2372    0.8610   -0.4016 H   0  0  0  0  0  0  0  0  0  0  0  0
    1.6719   -1.7064    1.1847 H   0  0  0  0  0  0  0  0  0  0  0  0
   -6.1626   -0.4933   -0.0690 H   0  0  0  0  0  0  0  0  0  0  0  0
   -5.7828   -2.0082   -0.9230 H   0  0  0  0  0  0  0  0  0  0  0  0
   -6.1377   -0.5346   -1.8491 H   0  0  0  0  0  0  0  0  0  0  0  0
   -2.9053    2.8684   -2.3967 H   0  0  0  0  0  0  0  0  0  0  0  0
   -1.3679    2.0544   -2.7640 H   0  0  0  0  0  0  0  0  0  0  0  0
   -1.5966    2.8861   -1.1979 H   0  0  0  0  0  0  0  0  0  0  0  0
   -1.3289   -2.6782    2.0038 H   0  0  0  0  0  0  0  0  0  0  0  0
   -1.4172   -3.5172    0.4121 H   0  0  0  0  0  0  0  0  0  0  0  0
    0.1580   -3.1466    1.1221 H   0  0  0  0  0  0  0  0  0  0  0  0
    6.6772    1.0830    0.2998 H   0  0  0  0  0  0  0  0  0  0  0  0
    6.3003    0.9952    2.0446 H   0  0  0  0  0  0  0  0  0  0  0  0
    6.3114   -0.4843    1.0540 H   0  0  0  0  0  0  0  0  0  0  0  0
    4.6121    2.5542   -0.3884 H   0  0  0  0  0  0  0  0  0  0  0  0
    4.7952    2.8255    1.3638 H   0  0  0  0  0  0  0  0  0  0  0  0
    3.2150    2.3853    0.7116 H   0  0  0  0  0  0  0  0  0  0  0  0
  1  2  2  0
  2  3  1  0
  3  4  2  0
  4  5  1  0
  5  6  2  0
  6  7  1  0
  7  8  2  0
  8  9  1  0
  9 10  1  0
 10 11  1  0
 10 12  1  0
 12 13  1  0
 13 14  1  0
 12 15  2  0
  9 16  2  0
  8 17  1  0
 17 18  1  0
  2 19  1  0
 19 20  1  0
 19 21  1  0
 17  5  1  0
 13  7  1  0
  3 22  1  0
  4 23  1  0
 11 24  1  0
 11 25  1  0
 11 26  1  0
 14 27  1  0
 14 28  1  0
 14 29  1  0
 18 30  1  0
 18 31  1  0
 18 32  1  0
 20 33  1  0
 20 34  1  0
 20 35  1  0
 21 36  1  0
 21 37  1  0
 21 38  1  0
M  END
