
     RDKit          3D

 31 33  0  0  0  0  0  0  0  0999 V2000
    4.4106   -1.7199   -1.2373 O   0  0  0  0  0  0  0  0  0  0  0  0
    3.9565   -0.6450   -0.8812 C   0  0  0  0  0  0  0  0  0  0  0  0
    2.5202   -0.4356   -0.5519 C   0  0  0  0  0  0  0  0  0  0  0  0
    1.6561   -1.5331   -0.6391 C   0  0  0  0  0  0  0  0  0  0  0  0
    0.2913   -1.3968   -0.3408 C   0  0  0  0  0  0  0  0  0  0  0  0
   -0.5431   -2.5633   -0.4530 C   0  0  0  0  0  0  0  0  0  0  0  0
   -1.1778   -3.5275   -0.5762 N   0  0  0  0  0  0  0  0  0  0  0  0
    2.0110    0.8087   -0.1652 C   0  0  0  0  0  0  0  0  0  0  0  0
    0.6473    0.9596    0.1357 C   0  0  0  0  0  0  0  0  0  0  0  0
    0.1854    2.2665    0.5215 C   0  0  0  0  0  0  0  0  0  0  0  0
   -0.1328    3.3453    0.8090 N   0  0  0  0  0  0  0  0  0  0  0  0
   -0.2271   -0.1449    0.0521 C   0  0  0  0  0  0  0  0  0  0  0  0
   -1.6545    0.0067    0.3717 C   0  0  0  0  0  0  0  0  0  0  0  0
   -2.5774    0.3085   -0.5811 C   0  0  0  0  0  0  0  0  0  0  0  0
   -3.7449    0.3580    0.1023 N   0  0  0  0  0  0  0  0  0  0  0  0
   -5.0999    0.5731   -0.0136 C   0  0  0  0  0  0  0  0  0  0  0  0
   -5.7001    0.4251    1.3141 C   0  0  0  0  0  0  0  0  0  0  0  0
   -4.6079    0.1060    2.2320 C   0  0  0  0  0  0  0  0  0  0  0  0
   -3.4527    0.0699    1.4969 N   0  0  0  0  0  4  0  0  0  0  0  0
   -2.0347   -0.1700    1.6886 N   0  0  0  0  0  2  0  0  0  0  0  0
    4.6543    0.5062   -0.7295 O   0  0  0  0  0  0  0  0  0  0  0  0
    6.0471    0.3841   -1.0254 C   0  0  0  0  0  0  0  0  0  0  0  0
    2.0488   -2.5056   -0.9407 H   0  0  0  0  0  0  0  0  0  0  0  0
    2.6697    1.6740   -0.0931 H   0  0  0  0  0  0  0  0  0  0  0  0
   -2.4896    0.4815   -1.6411 H   0  0  0  0  0  0  0  0  0  0  0  0
   -5.5480    0.8046   -0.9651 H   0  0  0  0  0  0  0  0  0  0  0  0
   -6.7444    0.5309    1.5630 H   0  0  0  0  0  0  0  0  0  0  0  0
   -4.5891   -0.0839    3.2887 H   0  0  0  0  0  0  0  0  0  0  0  0
    6.1924    0.0923   -2.0703 H   0  0  0  0  0  0  0  0  0  0  0  0
    6.5203   -0.3366   -0.3512 H   0  0  0  0  0  0  0  0  0  0  0  0
    6.5129    1.3612   -0.8705 H   0  0  0  0  0  0  0  0  0  0  0  0
  1  2  2  0
  2  3  1  0
  3  4  2  0
  4  5  1  0
  5  6  1  0
  6  7  3  0
  3  8  1  0
  8  9  2  0
  9 10  1  0
 10 11  3  0
  9 12  1  0
 12 13  1  0
 13 14  2  0
 14 15  1  0
 15 16  1  0
 16 17  2  0
 17 18  1  0
 18 19  2  0
 19 20  1  0
  2 21  1  0
 21 22  1  0
 12  5  2  0
 20 13  1  0
 19 15  1  0
  4 23  1  0
  8 24  1  0
 14 25  1  0
 16 26  1  0
 17 27  1  0
 18 28  1  0
 22 29  1  0
 22 30  1  0
 22 31  1  0
M  CHG  2  19   1  20  -1
M  END
