
     RDKit          3D

 35 40  0  0  0  0  0  0  0  0999 V2000
    4.7675    0.2838   -1.5135 Si  0  0  0  0  0  4  0  0  0  0  0  0
    6.4979    0.2529   -0.7099 C   0  0  0  0  0  0  0  0  0  0  0  0
    6.4092    0.1172    0.6302 C   0  0  0  0  0  0  0  0  0  0  0  0
    5.0743    0.0290    1.1392 C   0  0  0  0  0  0  0  0  0  0  0  0
    4.6341   -0.1112    2.4254 C   0  0  0  0  0  0  0  0  0  0  0  0
    2.9145   -0.1645    2.4729 S   0  0  0  0  0  0  0  0  0  0  0  0
    2.7486    0.0021    0.7459 C   0  0  0  0  0  0  0  0  0  0  0  0
    4.0006    0.0915    0.2029 C   0  0  0  0  0  0  0  0  0  0  0  0
    1.4471    0.0262    0.1302 C   0  0  0  0  0  0  0  0  0  0  0  0
    1.0618    0.1444   -1.2006 C   0  0  0  0  0  0  0  0  0  0  0  0
   -0.3506    0.1112   -1.2576 C   0  0  0  0  0  0  0  0  0  0  0  0
   -1.2052    0.1885   -2.2992 N   0  0  0  0  0  0  0  0  0  0  0  0
   -2.5436    0.1291   -2.0655 C   0  0  0  0  0  0  0  0  0  0  0  0
   -3.1382   -0.0104   -0.7934 C   0  0  0  0  0  0  0  0  0  0  0  0
   -4.5162   -0.0908   -0.3561 C   0  0  0  0  0  0  0  0  0  0  0  0
   -5.7145   -0.0530   -1.0893 C   0  0  0  0  0  0  0  0  0  0  0  0
   -6.9183   -0.1453   -0.4787 N   0  0  0  0  0  0  0  0  0  0  0  0
   -6.9637   -0.2761    0.8598 C   0  0  0  0  0  0  0  0  0  0  0  0
   -5.8514   -0.3245    1.6775 C   0  0  0  0  0  0  0  0  0  0  0  0
   -4.6114   -0.2280    1.0352 C   0  0  0  0  0  0  0  0  0  0  0  0
   -3.0536   -0.2567    1.7761 S   0  0  0  0  0  0  0  0  0  0  0  0
   -2.2925   -0.0919    0.2901 C   0  0  0  0  0  0  0  0  0  0  0  0
   -0.7861   -0.0254    0.0311 C   0  0  0  0  0  0  0  0  0  0  0  0
    0.2795   -0.0772    0.8686 N   0  0  0  0  0  0  0  0  0  0  0  0
    4.5762   -0.8924   -2.3979 H   0  0  0  0  0  0  0  0  0  0  0  0
    4.5059    1.5985   -2.1503 H   0  0  0  0  0  0  0  0  0  0  0  0
    7.3912    0.3375   -1.3072 H   0  0  0  0  0  0  0  0  0  0  0  0
    7.2760    0.0771    1.2801 H   0  0  0  0  0  0  0  0  0  0  0  0
    5.2097   -0.1854    3.3373 H   0  0  0  0  0  0  0  0  0  0  0  0
    1.7061    0.2449   -2.0597 H   0  0  0  0  0  0  0  0  0  0  0  0
   -3.1546    0.1990   -2.9619 H   0  0  0  0  0  0  0  0  0  0  0  0
   -5.7408    0.0508   -2.1690 H   0  0  0  0  0  0  0  0  0  0  0  0
   -7.9636   -0.3446    1.2811 H   0  0  0  0  0  0  0  0  0  0  0  0
   -5.9377   -0.4308    2.7518 H   0  0  0  0  0  0  0  0  0  0  0  0
    0.2422   -0.1756    1.8744 H   0  0  0  0  0  0  0  0  0  0  0  0
  1  2  1  0
  2  3  2  0
  3  4  1  0
  4  5  2  0
  5  6  1  0
  6  7  1  0
  7  8  2  0
  7  9  1  0
  9 10  2  0
 10 11  1  0
 11 12  2  0
 12 13  1  0
 13 14  2  0
 14 15  1  0
 15 16  2  0
 16 17  1  0
 17 18  2  0
 18 19  1  0
 19 20  2  0
 20 21  1  0
 21 22  1  0
 22 23  2  0
 23 24  1  0
  8  1  1  0
 24  9  1  0
  8  4  1  0
 23 11  1  0
 22 14  1  0
 20 15  1  0
  1 25  1  0
  1 26  1  0
  2 27  1  0
  3 28  1  0
  5 29  1  0
 10 30  1  0
 13 31  1  0
 16 32  1  0
 18 33  1  0
 19 34  1  0
 24 35  1  0
M  END
