
     RDKit          3D

 44 46  0  0  0  0  0  0  0  0999 V2000
    5.8717    2.6585   -1.0393 O   0  0  0  0  0  0  0  0  0  0  0  0
    5.3357    1.5523   -1.0119 C   0  0  0  0  0  0  0  0  0  0  0  0
    6.1392    0.2950   -1.2200 C   0  0  0  0  0  0  0  0  0  0  0  0
    3.8654    1.4400   -0.7691 C   0  0  0  0  0  0  0  0  0  0  0  0
    3.2139    0.1995   -0.7284 C   0  0  0  0  0  0  0  0  0  0  0  0
    1.8425    0.1800   -0.4972 C   0  0  0  0  0  0  0  0  0  0  0  0
    1.1130    1.3739   -0.3066 C   0  0  0  0  0  0  0  0  0  0  0  0
    1.7505    2.6018   -0.3456 C   0  0  0  0  0  0  0  0  0  0  0  0
    3.1304    2.6300   -0.5777 C   0  0  0  0  0  0  0  0  0  0  0  0
   -0.2786    1.0460   -0.0895 C   0  0  0  0  0  0  0  0  0  0  0  0
   -1.3710    1.8561    0.1363 C   0  0  0  0  0  0  0  0  0  0  0  0
   -2.6297    1.2570    0.3151 C   0  0  0  0  0  0  0  0  0  0  0  0
   -2.8323   -0.1447    0.2824 C   0  0  0  0  0  0  0  0  0  0  0  0
   -4.0950   -0.7210    0.4477 N   0  0  0  0  0  0  0  0  0  0  0  0
   -5.2868    0.0881    0.7230 C   0  0  0  0  0  0  0  0  0  0  0  0
   -5.3730    0.4658    2.1435 C   0  0  0  0  0  0  0  0  0  0  0  0
   -5.4398    0.7738    3.3028 C   0  0  0  0  0  0  0  0  0  0  0  0
   -4.1904   -2.1335    0.8129 C   0  0  0  0  0  0  0  0  0  0  0  0
   -1.6914   -0.9366    0.0408 C   0  0  0  0  0  0  0  0  0  0  0  0
   -0.4403   -0.3481   -0.1382 C   0  0  0  0  0  0  0  0  0  0  0  0
    0.9039   -1.0283   -0.4063 C   0  0  0  0  0  0  0  0  0  0  0  0
    1.2992   -1.9436    0.7581 C   0  0  0  0  0  0  0  0  0  0  0  0
    0.8759   -1.8014   -1.7297 C   0  0  0  0  0  0  0  0  0  0  0  0
    7.1880    0.5621   -1.3836 H   0  0  0  0  0  0  0  0  0  0  0  0
    5.7846   -0.2394   -2.1051 H   0  0  0  0  0  0  0  0  0  0  0  0
    6.0867   -0.3399   -0.3319 H   0  0  0  0  0  0  0  0  0  0  0  0
    3.7441   -0.7352   -0.8709 H   0  0  0  0  0  0  0  0  0  0  0  0
    1.2034    3.5276   -0.2007 H   0  0  0  0  0  0  0  0  0  0  0  0
    3.6393    3.5928   -0.6097 H   0  0  0  0  0  0  0  0  0  0  0  0
   -1.2750    2.9357    0.1787 H   0  0  0  0  0  0  0  0  0  0  0  0
   -3.4581    1.9346    0.4989 H   0  0  0  0  0  0  0  0  0  0  0  0
   -6.1828   -0.4866    0.4546 H   0  0  0  0  0  0  0  0  0  0  0  0
   -5.3281    0.9713    0.0756 H   0  0  0  0  0  0  0  0  0  0  0  0
   -5.4876    1.0455    4.3318 H   0  0  0  0  0  0  0  0  0  0  0  0
   -3.8459   -2.7738   -0.0063 H   0  0  0  0  0  0  0  0  0  0  0  0
   -3.6084   -2.3484    1.7162 H   0  0  0  0  0  0  0  0  0  0  0  0
   -5.2260   -2.4291    1.0172 H   0  0  0  0  0  0  0  0  0  0  0  0
   -1.7610   -2.0165   -0.0222 H   0  0  0  0  0  0  0  0  0  0  0  0
    0.5909   -2.7722    0.8727 H   0  0  0  0  0  0  0  0  0  0  0  0
    1.3232   -1.3995    1.7103 H   0  0  0  0  0  0  0  0  0  0  0  0
    2.2937   -2.3780    0.6044 H   0  0  0  0  0  0  0  0  0  0  0  0
    1.8573   -2.2307   -1.9619 H   0  0  0  0  0  0  0  0  0  0  0  0
    0.5942   -1.1551   -2.5700 H   0  0  0  0  0  0  0  0  0  0  0  0
    0.1546   -2.6260   -1.6951 H   0  0  0  0  0  0  0  0  0  0  0  0
  1  2  2  0
  2  3  1  0
  2  4  1  0
  4  5  2  0
  5  6  1  0
  6  7  2  0
  7  8  1  0
  8  9  2  0
  7 10  1  0
 10 11  2  0
 11 12  1  0
 12 13  2  0
 13 14  1  0
 14 15  1  0
 15 16  1  0
 16 17  3  0
 14 18  1  0
 13 19  1  0
 19 20  2  0
 20 21  1  0
 21 22  1  0
 21 23  1  0
  9  4  1  0
 21  6  1  0
 20 10  1  0
  3 24  1  0
  3 25  1  0
  3 26  1  0
  5 27  1  0
  8 28  1  0
  9 29  1  0
 11 30  1  0
 12 31  1  0
 15 32  1  0
 15 33  1  0
 17 34  1  0
 18 35  1  0
 18 36  1  0
 18 37  1  0
 19 38  1  0
 22 39  1  0
 22 40  1  0
 22 41  1  0
 23 42  1  0
 23 43  1  0
 23 44  1  0
M  END
