
     RDKit          3D

 33 35  0  0  0  0  0  0  0  0999 V2000
    1.5515   -0.9875   -3.1907 O   0  0  0  0  0  0  0  0  0  0  0  0
    1.2928   -0.6531   -2.0397 C   0  0  0  0  0  0  0  0  0  0  0  0
   -0.0791   -0.1995   -1.6931 C   0  0  0  0  0  0  0  0  0  0  0  0
   -0.6007   -0.1964   -0.4549 C   0  0  0  0  0  0  0  0  0  0  0  0
   -1.9676    0.2430   -0.1153 C   0  0  0  0  0  0  0  0  0  0  0  0
   -2.5163   -0.1701    1.1210 C   0  0  0  0  0  0  0  0  0  0  0  0
   -3.7964    0.2315    1.5239 C   0  0  0  0  0  0  0  0  0  0  0  0
   -4.5063    1.0480    0.6747 C   0  0  0  0  0  0  0  0  0  0  0  0
   -3.9828    1.4673   -0.5233 C   0  0  0  0  0  0  0  0  0  0  0  0
   -2.7220    1.0911   -0.9433 C   0  0  0  0  0  0  0  0  0  0  0  0
   -4.8380    2.2729   -1.2084 O   0  0  0  0  0  0  0  0  0  0  0  0
   -5.9606    2.3102   -0.3027 C   0  0  0  0  0  0  0  0  0  0  0  0
   -5.7532    1.5397    0.8987 O   0  0  0  0  0  0  0  0  0  0  0  0
    2.2155   -0.6045   -1.0330 N   0  0  0  0  0  0  0  0  0  0  0  0
    3.6124   -0.8440   -1.3040 C   0  0  0  0  0  0  0  0  0  0  0  0
    4.3199   -1.0419   -0.0157 C   0  0  0  0  0  0  0  0  0  0  0  0
    5.1083   -2.0575    0.4877 C   0  0  0  0  0  0  0  0  0  0  0  0
    5.4986   -1.6553    1.7872 C   0  0  0  0  0  0  0  0  0  0  0  0
    4.9269   -0.4217    1.9957 C   0  0  0  0  0  0  0  0  0  0  0  0
    4.2048   -0.0422    0.9103 O   0  0  0  0  0  0  0  0  0  0  0  0
   -0.6586    0.0852   -2.5659 H   0  0  0  0  0  0  0  0  0  0  0  0
   -0.0155   -0.5603    0.3862 H   0  0  0  0  0  0  0  0  0  0  0  0
   -1.9456   -0.8157    1.7860 H   0  0  0  0  0  0  0  0  0  0  0  0
   -4.2165   -0.0911    2.4702 H   0  0  0  0  0  0  0  0  0  0  0  0
   -2.3482    1.4653   -1.8896 H   0  0  0  0  0  0  0  0  0  0  0  0
   -6.1485    3.3533   -0.0246 H   0  0  0  0  0  0  0  0  0  0  0  0
   -6.8449    1.9197   -0.8220 H   0  0  0  0  0  0  0  0  0  0  0  0
    2.0028   -0.1135   -0.1753 H   0  0  0  0  0  0  0  0  0  0  0  0
    3.7146   -1.7194   -1.9533 H   0  0  0  0  0  0  0  0  0  0  0  0
    4.0115    0.0281   -1.8308 H   0  0  0  0  0  0  0  0  0  0  0  0
    5.3733   -2.9710   -0.0273 H   0  0  0  0  0  0  0  0  0  0  0  0
    6.1270   -2.1931    2.4840 H   0  0  0  0  0  0  0  0  0  0  0  0
    4.9408    0.2824    2.8167 H   0  0  0  0  0  0  0  0  0  0  0  0
  1  2  2  0
  2  3  1  0
  3  4  2  3
  4  5  1  0
  5  6  2  0
  6  7  1  0
  7  8  2  0
  8  9  1  0
  9 10  2  0
  9 11  1  0
 11 12  1  0
 12 13  1  0
  2 14  1  0
 14 15  1  0
 15 16  1  0
 16 17  2  0
 17 18  1  0
 18 19  2  0
 19 20  1  0
 10  5  1  0
 20 16  1  0
 13  8  1  0
  3 21  1  0
  4 22  1  0
  6 23  1  0
  7 24  1  0
 10 25  1  0
 12 26  1  0
 12 27  1  0
 14 28  1  0
 15 29  1  0
 15 30  1  0
 17 31  1  0
 18 32  1  0
 19 33  1  0
M  END
