
     RDKit          3D

 37 38  0  0  0  0  0  0  0  0999 V2000
   -0.5218    0.3527   -3.2671 O   0  0  0  0  0  0  0  0  0  0  0  0
   -0.7133    0.4627   -2.0623 C   0  0  0  0  0  0  0  0  0  0  0  0
   -1.9175   -0.1418   -1.4424 C   0  0  0  0  0  0  0  0  0  0  0  0
   -2.5126    0.3387   -0.3392 C   0  0  0  0  0  0  0  0  0  0  0  0
   -3.7194   -0.2511    0.2575 C   0  0  0  0  0  0  0  0  0  0  0  0
   -4.7672   -0.7632   -0.5192 C   0  0  0  0  0  0  0  0  0  0  0  0
   -5.9101   -1.2905    0.0880 C   0  0  0  0  0  0  0  0  0  0  0  0
   -6.0217   -1.3015    1.4766 C   0  0  0  0  0  0  0  0  0  0  0  0
   -4.9942   -0.7801    2.2592 C   0  0  0  0  0  0  0  0  0  0  0  0
   -3.8515   -0.2522    1.6526 C   0  0  0  0  0  0  0  0  0  0  0  0
    0.1598    1.0611   -1.1918 N   0  0  0  0  0  0  0  0  0  0  0  0
    1.4693    1.5000   -1.6380 C   0  0  0  0  0  0  0  0  0  0  0  0
    2.1429    2.4485   -0.6459 C   0  0  0  0  0  0  0  0  0  0  0  0
    2.3220    1.7208    1.0299 S   0  0  0  0  0  0  0  0  0  0  0  0
    3.5458    0.4665    0.7051 C   0  0  0  0  0  0  0  0  0  0  0  0
    3.2167   -0.8789    0.9020 C   0  0  0  0  0  0  0  0  0  0  0  0
    4.1618   -1.8793    0.6584 C   0  0  0  0  0  0  0  0  0  0  0  0
    5.4406   -1.5331    0.2275 C   0  0  0  0  0  0  0  0  0  0  0  0
    6.6052   -2.7630   -0.0708 Cl  0  0  0  0  0  0  0  0  0  0  0  0
    5.7831   -0.1953    0.0421 C   0  0  0  0  0  0  0  0  0  0  0  0
    4.8367    0.8043    0.2850 C   0  0  0  0  0  0  0  0  0  0  0  0
   -2.3140   -0.9875   -1.9943 H   0  0  0  0  0  0  0  0  0  0  0  0
   -2.1198    1.2115    0.1757 H   0  0  0  0  0  0  0  0  0  0  0  0
   -4.7150   -0.7476   -1.6053 H   0  0  0  0  0  0  0  0  0  0  0  0
   -6.7155   -1.6868   -0.5252 H   0  0  0  0  0  0  0  0  0  0  0  0
   -6.9117   -1.7106    1.9479 H   0  0  0  0  0  0  0  0  0  0  0  0
   -5.0820   -0.7819    3.3426 H   0  0  0  0  0  0  0  0  0  0  0  0
   -3.0624    0.1512    2.2831 H   0  0  0  0  0  0  0  0  0  0  0  0
    0.0590    0.8608   -0.2044 H   0  0  0  0  0  0  0  0  0  0  0  0
    2.0777    0.6061   -1.8158 H   0  0  0  0  0  0  0  0  0  0  0  0
    1.3551    2.0056   -2.6039 H   0  0  0  0  0  0  0  0  0  0  0  0
    3.1196    2.7668   -1.0232 H   0  0  0  0  0  0  0  0  0  0  0  0
    1.5298    3.3492   -0.5318 H   0  0  0  0  0  0  0  0  0  0  0  0
    2.2235   -1.1617    1.2434 H   0  0  0  0  0  0  0  0  0  0  0  0
    3.8945   -2.9219    0.8093 H   0  0  0  0  0  0  0  0  0  0  0  0
    6.7835    0.0766   -0.2844 H   0  0  0  0  0  0  0  0  0  0  0  0
    5.1233    1.8450    0.1537 H   0  0  0  0  0  0  0  0  0  0  0  0
  1  2  2  0
  2  3  1  0
  3  4  2  3
  4  5  1  0
  5  6  2  0
  6  7  1  0
  7  8  2  0
  8  9  1  0
  9 10  2  0
  2 11  1  0
 11 12  1  0
 12 13  1  0
 13 14  1  0
 14 15  1  0
 15 16  2  0
 16 17  1  0
 17 18  2  0
 18 19  1  0
 18 20  1  0
 20 21  2  0
 10  5  1  0
 21 15  1  0
  3 22  1  0
  4 23  1  0
  6 24  1  0
  7 25  1  0
  8 26  1  0
  9 27  1  0
 10 28  1  0
 11 29  1  0
 12 30  1  0
 12 31  1  0
 13 32  1  0
 13 33  1  0
 16 34  1  0
 17 35  1  0
 20 36  1  0
 21 37  1  0
M  END
