
     RDKit          3D

 38 40  0  0  0  0  0  0  0  0999 V2000
   -3.9614   -1.0031   -1.0118 O   0  0  0  0  0  0  0  0  0  0  0  0
   -4.4690   -0.1363   -0.2972 C   0  0  0  0  0  0  0  0  0  0  0  0
   -3.5930    0.6633    0.6184 C   0  0  0  0  0  0  0  0  0  0  0  0
   -2.2683    0.4719    0.7084 C   0  0  0  0  0  0  0  0  0  0  0  0
   -1.5074   -0.4385    0.0255 N   0  0  0  0  0  0  0  0  0  0  0  0
   -0.1236   -0.6691    0.0601 C   0  0  0  0  0  0  0  0  0  0  0  0
    0.7693    0.0657    0.8502 C   0  0  0  0  0  0  0  0  0  0  0  0
    2.1412   -0.2163    0.8458 C   0  0  0  0  0  0  0  0  0  0  0  0
    2.6396   -1.2360    0.0364 C   0  0  0  0  0  0  0  0  0  0  0  0
    3.9702   -1.5851    0.0055 O   0  0  0  0  0  0  0  0  0  0  0  0
    4.8825   -0.5582   -0.1047 C   0  0  0  0  0  0  0  0  0  0  0  0
    4.8058    0.3587   -1.1604 C   0  0  0  0  0  0  0  0  0  0  0  0
    5.7631    1.3675   -1.2794 C   0  0  0  0  0  0  0  0  0  0  0  0
    6.8054    1.4543   -0.3565 C   0  0  0  0  0  0  0  0  0  0  0  0
    6.8964    0.5283    0.6848 C   0  0  0  0  0  0  0  0  0  0  0  0
    5.9401   -0.4825    0.8073 C   0  0  0  0  0  0  0  0  0  0  0  0
    6.0905   -1.6072    2.1077 Cl  0  0  0  0  0  0  0  0  0  0  0  0
    1.7673   -1.9974   -0.7347 C   0  0  0  0  0  0  0  0  0  0  0  0
    0.3994   -1.7090   -0.7261 C   0  0  0  0  0  0  0  0  0  0  0  0
   -5.8914    0.1604   -0.2923 C   0  0  0  0  0  0  0  0  0  0  0  0
   -6.6836    1.0567    0.4075 C   0  0  0  0  0  0  0  0  0  0  0  0
   -8.0170    0.8661   -0.0344 C   0  0  0  0  0  0  0  0  0  0  0  0
   -7.9667   -0.1317   -0.9756 C   0  0  0  0  0  0  0  0  0  0  0  0
   -6.6926   -0.5638   -1.1390 O   0  0  0  0  0  0  0  0  0  0  0  0
   -4.0585    1.4252    1.2286 H   0  0  0  0  0  0  0  0  0  0  0  0
   -1.7117    1.0966    1.4001 H   0  0  0  0  0  0  0  0  0  0  0  0
   -2.0404   -1.0250   -0.6252 H   0  0  0  0  0  0  0  0  0  0  0  0
    0.4214    0.8697    1.4895 H   0  0  0  0  0  0  0  0  0  0  0  0
    2.8042    0.3593    1.4852 H   0  0  0  0  0  0  0  0  0  0  0  0
    4.0066    0.2876   -1.8939 H   0  0  0  0  0  0  0  0  0  0  0  0
    5.6987    2.0820   -2.0968 H   0  0  0  0  0  0  0  0  0  0  0  0
    7.5521    2.2392   -0.4519 H   0  0  0  0  0  0  0  0  0  0  0  0
    7.7163    0.5975    1.3951 H   0  0  0  0  0  0  0  0  0  0  0  0
    2.1464   -2.8121   -1.3450 H   0  0  0  0  0  0  0  0  0  0  0  0
   -0.2643   -2.3129   -1.3413 H   0  0  0  0  0  0  0  0  0  0  0  0
   -6.3544    1.7682    1.1513 H   0  0  0  0  0  0  0  0  0  0  0  0
   -8.9043    1.3901    0.2926 H   0  0  0  0  0  0  0  0  0  0  0  0
   -8.7086   -0.6240   -1.5893 H   0  0  0  0  0  0  0  0  0  0  0  0
  1  2  2  0
  2  3  1  0
  3  4  2  3
  4  5  1  0
  5  6  1  0
  6  7  2  0
  7  8  1  0
  8  9  2  0
  9 10  1  0
 10 11  1  0
 11 12  2  0
 12 13  1  0
 13 14  2  0
 14 15  1  0
 15 16  2  0
 16 17  1  0
  9 18  1  0
 18 19  2  0
  2 20  1  0
 20 21  2  0
 21 22  1  0
 22 23  2  0
 23 24  1  0
 19  6  1  0
 24 20  1  0
 16 11  1  0
  3 25  1  0
  4 26  1  0
  5 27  1  0
  7 28  1  0
  8 29  1  0
 12 30  1  0
 13 31  1  0
 14 32  1  0
 15 33  1  0
 18 34  1  0
 19 35  1  0
 21 36  1  0
 22 37  1  0
 23 38  1  0
M  END
