
     RDKit          3D

 36 37  0  0  0  0  0  0  0  0999 V2000
    2.2543   -2.5212    1.0731 O   0  0  0  0  0  0  0  0  0  0  0  0
    1.5960   -1.4924    0.9565 C   0  0  0  0  0  0  0  0  0  0  0  0
    2.2194   -0.2176    0.5775 C   0  0  0  0  0  0  0  0  0  0  0  0
    3.5842   -0.1823    0.2661 C   0  0  0  0  0  0  0  0  0  0  0  0
    4.1833    1.0342   -0.0487 C   0  0  0  0  0  0  0  0  0  0  0  0
    6.0242    1.0905   -0.4720 Br  0  0  0  0  0  0  0  0  0  0  0  0
    3.4387    2.2113   -0.0475 C   0  0  0  0  0  0  0  0  0  0  0  0
    2.0783    2.1648    0.2675 C   0  0  0  0  0  0  0  0  0  0  0  0
    1.1011    3.7931    0.2522 Br  0  0  0  0  0  0  0  0  0  0  0  0
    1.4553    0.9471    0.5708 C   0  0  0  0  0  0  0  0  0  0  0  0
    0.1251    0.9633    0.8719 O   0  0  0  0  0  0  0  0  0  0  0  0
   -0.6242   -0.2575    0.7267 C   0  0  0  0  0  0  0  0  0  0  0  0
   -1.2611   -0.3692   -0.6971 C   0  0  0  0  0  0  0  0  0  0  0  0
   -2.2688   -1.5339   -0.7793 C   0  0  0  0  0  0  0  0  0  0  0  0
   -0.2258   -0.5743   -1.8205 C   0  0  0  0  0  0  0  0  0  0  0  0
   -2.0215    0.9313   -0.9733 C   0  0  0  0  0  0  0  0  0  0  0  0
   -3.0106    1.1258   -0.0542 O   0  0  0  0  0  0  0  0  0  0  0  0
   -3.7473    2.3364   -0.2385 C   0  0  0  0  0  0  0  0  0  0  0  0
   -1.7856    1.6924   -1.9026 O   0  0  0  0  0  0  0  0  0  0  0  0
    0.1385   -1.4630    1.2114 C   0  0  0  0  0  0  0  0  0  0  0  0
   -0.4253   -2.4755    1.8918 C   0  0  0  0  0  0  0  0  0  0  0  0
    0.2134   -3.5988    2.3481 O   0  0  0  0  0  0  0  0  0  0  0  0
    4.1712   -1.0989    0.2788 H   0  0  0  0  0  0  0  0  0  0  0  0
    3.9132    3.1592   -0.2900 H   0  0  0  0  0  0  0  0  0  0  0  0
   -1.4518   -0.1228    1.4379 H   0  0  0  0  0  0  0  0  0  0  0  0
   -2.9871   -1.5052    0.0479 H   0  0  0  0  0  0  0  0  0  0  0  0
   -1.7665   -2.5067   -0.7546 H   0  0  0  0  0  0  0  0  0  0  0  0
   -2.8489   -1.4866   -1.7087 H   0  0  0  0  0  0  0  0  0  0  0  0
   -0.7218   -0.6632   -2.7952 H   0  0  0  0  0  0  0  0  0  0  0  0
    0.4666    0.2688   -1.9046 H   0  0  0  0  0  0  0  0  0  0  0  0
    0.3580   -1.4885   -1.6737 H   0  0  0  0  0  0  0  0  0  0  0  0
   -4.2648    2.3260   -1.2028 H   0  0  0  0  0  0  0  0  0  0  0  0
   -3.0846    3.2041   -0.1611 H   0  0  0  0  0  0  0  0  0  0  0  0
   -4.4959    2.4009    0.5559 H   0  0  0  0  0  0  0  0  0  0  0  0
   -1.4768   -2.5185    2.1531 H   0  0  0  0  0  0  0  0  0  0  0  0
    1.1475   -3.5731    2.0373 H   0  0  0  0  0  0  0  0  0  0  0  0
  1  2  2  0
  2  3  1  0
  3  4  2  0
  4  5  1  0
  5  6  1  0
  5  7  2  0
  7  8  1  0
  8  9  1  0
  8 10  2  0
 10 11  1  0
 11 12  1  0
 12 13  1  0
 13 14  1  0
 13 15  1  0
 13 16  1  0
 16 17  1  0
 17 18  1  0
 16 19  2  0
  2 20  1  0
 20 21  2  0
 21 22  1  0
 10  3  1  0
 20 12  1  0
  4 23  1  0
  7 24  1  0
 12 25  1  0
 14 26  1  0
 14 27  1  0
 14 28  1  0
 15 29  1  0
 15 30  1  0
 15 31  1  0
 18 32  1  0
 18 33  1  0
 18 34  1  0
 21 35  1  0
 22 36  1  0
M  END
