
     RDKit          3D

 36 41  0  0  0  0  0  0  0  0999 V2000
   -3.5925    1.6608   -0.7439 Si  0  0  0  0  0  4  0  0  0  0  0  0
   -5.4455    1.5686   -1.1941 C   0  0  0  0  0  0  0  0  0  0  0  0
   -5.9891    0.3980   -0.7946 C   0  0  0  0  0  0  0  0  0  0  0  0
   -5.0792   -0.4969   -0.1469 C   0  0  0  0  0  0  0  0  0  0  0  0
   -5.2860   -1.7361    0.3945 C   0  0  0  0  0  0  0  0  0  0  0  0
   -3.8221   -2.3557    1.0696 S   0  0  0  0  0  0  0  0  0  0  0  0
   -2.9028   -0.9635    0.6084 C   0  0  0  0  0  0  0  0  0  0  0  0
   -3.7288   -0.0711   -0.0107 C   0  0  0  0  0  0  0  0  0  0  0  0
   -1.5013   -0.8767    0.8817 C   0  0  0  0  0  0  0  0  0  0  0  0
   -0.7965   -1.1773    2.0308 C   0  0  0  0  0  0  0  0  0  0  0  0
    0.5704   -0.9151    1.7800 C   0  0  0  0  0  0  0  0  0  0  0  0
    1.6223   -1.0519    2.6206 N   0  0  0  0  0  0  0  0  0  0  0  0
    2.8232   -0.7242    2.0900 C   0  0  0  0  0  0  0  0  0  0  0  0
    3.0520   -0.2700    0.7820 C   0  0  0  0  0  0  0  0  0  0  0  0
    4.3475    0.0620    0.2737 C   0  0  0  0  0  0  0  0  0  0  0  0
    5.8751   -0.0051    1.0907 S   0  0  0  0  0  0  0  0  0  0  0  0
    6.7292    0.5462   -0.2731 C   0  0  0  0  0  0  0  0  0  0  0  0
    5.8961    0.7834   -1.3385 C   0  0  0  0  0  0  0  0  0  0  0  0
    4.5169    0.5105   -1.0442 C   0  0  0  0  0  0  0  0  0  0  0  0
    3.3746    0.6314   -1.8741 C   0  0  0  0  0  0  0  0  0  0  0  0
    2.1010    0.3132   -1.3978 C   0  0  0  0  0  0  0  0  0  0  0  0
    1.9452   -0.1329   -0.0810 C   0  0  0  0  0  0  0  0  0  0  0  0
    0.6873   -0.4706    0.4651 C   0  0  0  0  0  0  0  0  0  0  0  0
   -0.5851   -0.4683   -0.0591 N   0  0  0  0  0  0  0  0  0  0  0  0
   -2.7275    1.6967   -1.9520 H   0  0  0  0  0  0  0  0  0  0  0  0
   -3.3338    2.7319    0.2483 H   0  0  0  0  0  0  0  0  0  0  0  0
   -5.9384    2.3860   -1.6953 H   0  0  0  0  0  0  0  0  0  0  0  0
   -7.0325    0.1458   -0.9462 H   0  0  0  0  0  0  0  0  0  0  0  0
   -6.1972   -2.3150    0.4477 H   0  0  0  0  0  0  0  0  0  0  0  0
   -1.2128   -1.5367    2.9617 H   0  0  0  0  0  0  0  0  0  0  0  0
    3.6459   -0.8459    2.7909 H   0  0  0  0  0  0  0  0  0  0  0  0
    7.8026    0.6710   -0.2318 H   0  0  0  0  0  0  0  0  0  0  0  0
    6.2531    1.1393   -2.2973 H   0  0  0  0  0  0  0  0  0  0  0  0
    3.4907    0.9771   -2.8991 H   0  0  0  0  0  0  0  0  0  0  0  0
    1.2515    0.4184   -2.0656 H   0  0  0  0  0  0  0  0  0  0  0  0
   -0.8135   -0.2273   -1.0123 H   0  0  0  0  0  0  0  0  0  0  0  0
  1  2  1  0
  2  3  2  0
  3  4  1  0
  4  5  2  0
  5  6  1  0
  6  7  1  0
  7  8  2  0
  7  9  1  0
  9 10  2  0
 10 11  1  0
 11 12  2  0
 12 13  1  0
 13 14  2  0
 14 15  1  0
 15 16  1  0
 16 17  1  0
 17 18  2  0
 18 19  1  0
 19 20  1  0
 20 21  2  0
 21 22  1  0
 22 23  2  0
 23 24  1  0
  8  1  1  0
 24  9  1  0
  8  4  1  0
 23 11  1  0
 22 14  1  0
 19 15  2  0
  1 25  1  0
  1 26  1  0
  2 27  1  0
  3 28  1  0
  5 29  1  0
 10 30  1  0
 13 31  1  0
 17 32  1  0
 18 33  1  0
 20 34  1  0
 21 35  1  0
 24 36  1  0
M  END
