
     RDKit          3D

 27 29  0  0  0  0  0  0  0  0999 V2000
   -1.1298    2.0147   -0.9591 O   0  0  0  0  0  0  0  0  0  0  0  0
   -1.1690    0.8908   -0.4621 C   0  0  0  0  0  0  0  0  0  0  0  0
   -2.4364    0.1897   -0.3154 C   0  0  0  0  0  0  0  0  0  0  0  0
   -2.8418   -1.0179   -0.8574 C   0  0  0  0  0  0  0  0  0  0  0  0
   -4.1778   -1.3550   -0.4836 C   0  0  0  0  0  0  0  0  0  0  0  0
   -4.7282   -0.3807    0.3081 C   0  0  0  0  0  0  0  0  0  0  0  0
   -6.3090   -0.3791    0.9781 Cl  0  0  0  0  0  0  0  0  0  0  0  0
   -3.6882    0.9197    0.6032 S   0  0  0  0  0  0  0  0  0  0  0  0
   -0.0406    0.2148   -0.0023 N   0  0  0  0  0  0  0  0  0  0  0  0
   -0.0297   -1.0568    0.7450 C   0  0  0  0  0  0  0  0  0  0  0  0
    1.3981   -1.2854    1.2551 C   0  0  0  0  0  0  0  0  0  0  0  0
    2.1506   -0.1942    0.5672 C   0  0  0  0  0  0  0  0  0  0  0  0
    3.5196    0.0282    0.5994 C   0  0  0  0  0  0  0  0  0  0  0  0
    4.0263    1.1379   -0.0771 C   0  0  0  0  0  0  0  0  0  0  0  0
    3.1648    2.0051   -0.7637 C   0  0  0  0  0  0  0  0  0  0  0  0
    1.7855    1.7729   -0.7853 C   0  0  0  0  0  0  0  0  0  0  0  0
    1.2893    0.6664   -0.1165 C   0  0  0  0  0  0  0  0  0  0  0  0
   -2.2158   -1.6236   -1.5023 H   0  0  0  0  0  0  0  0  0  0  0  0
   -4.7006   -2.2524   -0.7902 H   0  0  0  0  0  0  0  0  0  0  0  0
   -0.3204   -1.8623    0.0617 H   0  0  0  0  0  0  0  0  0  0  0  0
   -0.7531   -1.0203    1.5667 H   0  0  0  0  0  0  0  0  0  0  0  0
    1.4491   -1.1603    2.3415 H   0  0  0  0  0  0  0  0  0  0  0  0
    1.7664   -2.2782    0.9805 H   0  0  0  0  0  0  0  0  0  0  0  0
    4.1843   -0.6369    1.1414 H   0  0  0  0  0  0  0  0  0  0  0  0
    5.0953    1.3372   -0.0684 H   0  0  0  0  0  0  0  0  0  0  0  0
    3.5710    2.8692   -1.2845 H   0  0  0  0  0  0  0  0  0  0  0  0
    1.1402    2.4567   -1.3259 H   0  0  0  0  0  0  0  0  0  0  0  0
  1  2  2  0
  2  3  1  0
  3  4  2  0
  4  5  1  0
  5  6  2  0
  6  7  1  0
  6  8  1  0
  2  9  1  0
  9 10  1  0
 10 11  1  0
 11 12  1  0
 12 13  2  0
 13 14  1  0
 14 15  2  0
 15 16  1  0
 16 17  2  0
  8  3  1  0
 17  9  1  0
 17 12  1  0
  4 18  1  0
  5 19  1  0
 10 20  1  0
 10 21  1  0
 11 22  1  0
 11 23  1  0
 13 24  1  0
 14 25  1  0
 15 26  1  0
 16 27  1  0
M  END
