
     RDKit          3D

 41 47  0  0  0  0  0  0  0  0999 V2000
    3.8449    0.4992    2.1245 Si  0  0  0  0  0  4  0  0  0  0  0  0
    5.7317    0.8315    1.9909 C   0  0  0  0  0  0  0  0  0  0  0  0
    6.1221    0.9445    0.7020 C   0  0  0  0  0  0  0  0  0  0  0  0
    5.0719    0.7962   -0.2580 C   0  0  0  0  0  0  0  0  0  0  0  0
    5.0953    0.8512   -1.6255 C   0  0  0  0  0  0  0  0  0  0  0  0
    3.5105    0.6042   -2.2739 S   0  0  0  0  0  0  0  0  0  0  0  0
    2.7993    0.4164   -0.7083 C   0  0  0  0  0  0  0  0  0  0  0  0
    3.7669    0.5516    0.2433 C   0  0  0  0  0  0  0  0  0  0  0  0
    1.3613    0.1672   -0.5822 C   0  0  0  0  0  0  0  0  0  0  0  0
    0.5222    1.2836   -0.5778 C   0  0  0  0  0  0  0  0  0  0  0  0
   -0.8652    1.1195   -0.4419 C   0  0  0  0  0  0  0  0  0  0  0  0
   -1.9956    2.4162   -0.4149 S   0  0  0  0  0  0  0  0  0  0  0  0
   -3.2763    1.3549   -0.2709 C   0  0  0  0  0  0  0  0  0  0  0  0
   -2.9399    0.0163   -0.2319 C   0  0  0  0  0  0  0  0  0  0  0  0
   -4.0284   -0.8855   -0.1433 C   0  0  0  0  0  0  0  0  0  0  0  0
   -5.3458   -0.5435   -0.0712 N   0  0  0  0  0  0  0  0  0  0  0  0
   -5.6881    0.7600   -0.0936 C   0  0  0  0  0  0  0  0  0  0  0  0
   -6.9396    1.4074   -0.0372 C   0  0  0  0  0  0  0  0  0  0  0  0
   -6.6722    2.7598   -0.1067 C   0  0  0  0  0  0  0  0  0  0  0  0
   -5.3298    2.9839   -0.2024 O   0  0  0  0  0  0  0  0  0  0  0  0
   -4.7533    1.7587   -0.1913 C   0  0  0  0  0  0  0  0  0  0  0  0
   -1.4729   -0.1396   -0.3054 C   0  0  0  0  0  0  0  0  0  0  0  0
   -0.5854   -1.2915   -0.2749 C   0  0  0  0  0  0  0  0  0  0  0  0
   -1.0757   -2.6068   -0.0846 C   0  0  0  0  0  0  0  0  0  0  0  0
   -0.2342   -3.7216   -0.0694 C   0  0  0  0  0  0  0  0  0  0  0  0
    1.1281   -3.5592   -0.2412 C   0  0  0  0  0  0  0  0  0  0  0  0
    1.6484   -2.2795   -0.4157 C   0  0  0  0  0  0  0  0  0  0  0  0
    0.8253   -1.1263   -0.4280 C   0  0  0  0  0  0  0  0  0  0  0  0
    3.5981   -0.8423    2.7093 H   0  0  0  0  0  0  0  0  0  0  0  0
    3.1631    1.6333    2.7967 H   0  0  0  0  0  0  0  0  0  0  0  0
    6.3416    0.9070    2.8765 H   0  0  0  0  0  0  0  0  0  0  0  0
    7.1479    1.1337    0.4073 H   0  0  0  0  0  0  0  0  0  0  0  0
    5.9323    1.0221   -2.2877 H   0  0  0  0  0  0  0  0  0  0  0  0
    0.9421    2.2826   -0.6830 H   0  0  0  0  0  0  0  0  0  0  0  0
   -3.8899   -1.9594   -0.1382 H   0  0  0  0  0  0  0  0  0  0  0  0
   -7.9121    0.9459    0.0418 H   0  0  0  0  0  0  0  0  0  0  0  0
   -7.2911    3.6466   -0.1015 H   0  0  0  0  0  0  0  0  0  0  0  0
   -2.1242   -2.8077    0.0741 H   0  0  0  0  0  0  0  0  0  0  0  0
   -0.6500   -4.7154    0.0777 H   0  0  0  0  0  0  0  0  0  0  0  0
    1.7901   -4.4209   -0.2363 H   0  0  0  0  0  0  0  0  0  0  0  0
    2.7262   -2.1942   -0.5469 H   0  0  0  0  0  0  0  0  0  0  0  0
  1  2  1  0
  2  3  2  0
  3  4  1  0
  4  5  2  0
  5  6  1  0
  6  7  1  0
  7  8  2  0
  7  9  1  0
  9 10  2  0
 10 11  1  0
 11 12  1  0
 12 13  1  0
 13 14  2  0
 14 15  1  0
 15 16  2  0
 16 17  1  0
 17 18  1  0
 18 19  2  0
 19 20  1  0
 20 21  1  0
 14 22  1  0
 22 23  1  0
 23 24  2  0
 24 25  1  0
 25 26  2  0
 26 27  1  0
 27 28  2  0
  8  1  1  0
 28  9  1  0
  8  4  1  0
 22 11  2  0
 28 23  1  0
 21 13  1  0
 21 17  2  0
  1 29  1  0
  1 30  1  0
  2 31  1  0
  3 32  1  0
  5 33  1  0
 10 34  1  0
 15 35  1  0
 18 36  1  0
 19 37  1  0
 24 38  1  0
 25 39  1  0
 26 40  1  0
 27 41  1  0
M  END
