
     RDKit          3D

 26 27  0  0  0  0  0  0  0  0999 V2000
   -0.0068   -2.5552    0.3196 O   0  0  0  0  0  0  0  0  0  0  0  0
    0.1368   -1.3510    0.1227 C   0  0  0  0  0  0  0  0  0  0  0  0
    1.5070   -0.7962   -0.0414 C   0  0  0  0  0  0  0  0  0  0  0  0
    2.3875   -0.9895    0.9429 C   0  0  0  0  0  0  0  0  0  0  0  0
    3.7119   -0.5274    0.8859 O   0  0  0  0  0  0  0  0  0  0  0  0
    4.1713    0.1454   -0.2230 C   0  0  0  0  0  0  0  0  0  0  0  0
    5.3179    0.5781   -0.2679 O   0  0  0  0  0  0  0  0  0  0  0  0
    3.2038    0.3183   -1.3505 C   0  0  0  0  0  0  0  0  0  0  0  0
    3.7910    1.1769   -2.9028 Br  0  0  0  0  0  0  0  0  0  0  0  0
    1.9471   -0.1373   -1.2409 C   0  0  0  0  0  0  0  0  0  0  0  0
   -0.9201   -0.4646    0.0407 N   0  0  0  0  0  0  0  0  0  0  0  0
   -0.8157    1.0005    0.0510 C   0  0  0  0  0  0  0  0  0  0  0  0
   -2.0564    1.6383    0.6857 C   0  0  0  0  0  0  0  0  0  0  0  0
   -3.2764    1.2867    0.0221 O   0  0  0  0  0  0  0  0  0  0  0  0
   -3.2795   -0.0323   -0.5437 C   0  0  0  0  0  0  0  0  0  0  0  0
   -2.2841   -0.9926    0.1124 C   0  0  0  0  0  0  0  0  0  0  0  0
    2.1974   -1.5057    1.8752 H   0  0  0  0  0  0  0  0  0  0  0  0
    1.2376   -0.0400   -2.0573 H   0  0  0  0  0  0  0  0  0  0  0  0
    0.0833    1.3148    0.5888 H   0  0  0  0  0  0  0  0  0  0  0  0
   -0.7318    1.3151   -0.9953 H   0  0  0  0  0  0  0  0  0  0  0  0
   -2.1475    1.3352    1.7354 H   0  0  0  0  0  0  0  0  0  0  0  0
   -1.9725    2.7295    0.6663 H   0  0  0  0  0  0  0  0  0  0  0  0
   -3.0535    0.0720   -1.6113 H   0  0  0  0  0  0  0  0  0  0  0  0
   -4.2978   -0.4250   -0.4614 H   0  0  0  0  0  0  0  0  0  0  0  0
   -2.5197   -1.1167    1.1760 H   0  0  0  0  0  0  0  0  0  0  0  0
   -2.3306   -1.9774   -0.3644 H   0  0  0  0  0  0  0  0  0  0  0  0
  1  2  2  0
  2  3  1  0
  3  4  2  0
  4  5  1  0
  5  6  1  0
  6  7  2  0
  6  8  1  0
  8  9  1  0
  8 10  2  0
  2 11  1  0
 11 12  1  0
 12 13  1  0
 13 14  1  0
 14 15  1  0
 15 16  1  0
 10  3  1  0
 16 11  1  0
  4 17  1  0
 10 18  1  0
 12 19  1  0
 12 20  1  0
 13 21  1  0
 13 22  1  0
 15 23  1  0
 15 24  1  0
 16 25  1  0
 16 26  1  0
M  END
