
     RDKit          3D

 34 35  0  0  0  0  0  0  0  0999 V2000
   -4.1548    1.3634    0.6299 O   0  0  0  0  0  0  0  0  0  0  0  0
   -3.7883    0.2703    0.2025 C   0  0  0  0  0  0  0  0  0  0  0  0
   -4.7735   -0.8238   -0.1734 C   0  0  0  0  0  0  0  0  0  0  0  0
   -6.2178   -0.3944    0.0306 C   0  0  0  0  0  0  0  0  0  0  0  0
   -2.3253    0.0009    0.0454 C   0  0  0  0  0  0  0  0  0  0  0  0
   -1.8350   -1.2220   -0.4200 C   0  0  0  0  0  0  0  0  0  0  0  0
   -0.4562   -1.4220   -0.5481 C   0  0  0  0  0  0  0  0  0  0  0  0
    0.4571   -0.4084   -0.2141 C   0  0  0  0  0  0  0  0  0  0  0  0
    1.8508   -0.5955   -0.3376 C   0  0  0  0  0  0  0  0  0  0  0  0
    2.7919    0.3981   -0.0041 C   0  0  0  0  0  0  0  0  0  0  0  0
    4.1702    0.1920   -0.1508 N   0  0  0  0  0  0  0  0  0  0  0  0
    5.1013    1.1929    0.3668 C   0  0  0  0  0  0  0  0  0  0  0  0
    4.6735   -1.1810   -0.1772 C   0  0  0  0  0  0  0  0  0  0  0  0
    2.2591    1.6189    0.4402 C   0  0  0  0  0  0  0  0  0  0  0  0
    0.8795    1.8313    0.5735 C   0  0  0  0  0  0  0  0  0  0  0  0
   -0.0337    0.8241    0.2521 C   0  0  0  0  0  0  0  0  0  0  0  0
   -1.4199    1.0180    0.3788 C   0  0  0  0  0  0  0  0  0  0  0  0
   -4.6295   -1.0818   -1.2280 H   0  0  0  0  0  0  0  0  0  0  0  0
   -4.5774   -1.7041    0.4477 H   0  0  0  0  0  0  0  0  0  0  0  0
   -6.4577    0.4820   -0.5805 H   0  0  0  0  0  0  0  0  0  0  0  0
   -6.4072   -0.1358    1.0777 H   0  0  0  0  0  0  0  0  0  0  0  0
   -6.8988   -1.2038   -0.2501 H   0  0  0  0  0  0  0  0  0  0  0  0
   -2.4969   -2.0386   -0.6912 H   0  0  0  0  0  0  0  0  0  0  0  0
   -0.0962   -2.3820   -0.9133 H   0  0  0  0  0  0  0  0  0  0  0  0
    2.1921   -1.5533   -0.7194 H   0  0  0  0  0  0  0  0  0  0  0  0
    5.0157    1.2850    1.4551 H   0  0  0  0  0  0  0  0  0  0  0  0
    6.1384    0.9239    0.1364 H   0  0  0  0  0  0  0  0  0  0  0  0
    4.9357    2.1695   -0.1010 H   0  0  0  0  0  0  0  0  0  0  0  0
    5.7683   -1.2039   -0.2205 H   0  0  0  0  0  0  0  0  0  0  0  0
    4.3692   -1.7303    0.7207 H   0  0  0  0  0  0  0  0  0  0  0  0
    4.3271   -1.7126   -1.0697 H   0  0  0  0  0  0  0  0  0  0  0  0
    2.9056    2.4506    0.7029 H   0  0  0  0  0  0  0  0  0  0  0  0
    0.5314    2.7988    0.9292 H   0  0  0  0  0  0  0  0  0  0  0  0
   -1.7986    1.9735    0.7399 H   0  0  0  0  0  0  0  0  0  0  0  0
  1  2  2  0
  2  3  1  0
  3  4  1  0
  2  5  1  0
  5  6  2  0
  6  7  1  0
  7  8  2  0
  8  9  1  0
  9 10  2  0
 10 11  1  0
 11 12  1  0
 11 13  1  0
 10 14  1  0
 14 15  2  0
  8 16  1  0
 16 17  2  0
 17  5  1  0
 16 15  1  0
  3 18  1  0
  3 19  1  0
  4 20  1  0
  4 21  1  0
  4 22  1  0
  6 23  1  0
  7 24  1  0
  9 25  1  0
 12 26  1  0
 12 27  1  0
 12 28  1  0
 13 29  1  0
 13 30  1  0
 13 31  1  0
 14 32  1  0
 15 33  1  0
 17 34  1  0
M  END
