
     RDKit          3D

 37 39  0  0  0  0  0  0  0  0999 V2000
   -2.3291   -0.6323    3.7452 O   0  0  0  0  0  0  0  0  0  0  0  0
   -1.7286   -0.7103    2.6782 C   0  0  0  0  0  0  0  0  0  0  0  0
   -0.5135   -1.5970    2.5103 C   0  0  0  0  0  0  0  0  0  0  0  0
    0.7730   -0.7825    2.5683 C   0  0  0  0  0  0  0  0  0  0  0  0
    1.3090   -0.5129    1.1714 C   0  0  0  0  0  0  0  0  0  0  0  0
    0.5807    0.2241    0.3923 N   0  0  0  0  0  0  0  0  0  0  0  0
    1.0449    0.5137   -0.8758 C   0  0  0  0  0  0  0  0  0  0  0  0
    0.4103    1.2278   -1.6451 O   0  0  0  0  0  0  0  0  0  0  0  0
    2.3440   -0.0413   -1.3316 C   0  0  0  0  0  0  0  0  0  0  0  0
    2.8399    0.2139   -2.6146 C   0  0  0  0  0  0  0  0  0  0  0  0
    4.0627   -0.3353   -2.9987 C   0  0  0  0  0  0  0  0  0  0  0  0
    4.7816   -1.1297   -2.1037 C   0  0  0  0  0  0  0  0  0  0  0  0
    4.2821   -1.3778   -0.8212 C   0  0  0  0  0  0  0  0  0  0  0  0
    3.0596   -0.8295   -0.4262 C   0  0  0  0  0  0  0  0  0  0  0  0
    2.5179   -1.0675    0.8365 N   0  0  0  0  0  0  0  0  0  0  0  0
   -2.0752   -0.0093    1.5513 N   0  0  0  0  0  0  0  0  0  0  0  0
   -3.1376    0.9694    1.5950 C   0  0  0  0  0  0  0  0  0  0  0  0
   -3.5415    1.3176    0.2128 C   0  0  0  0  0  0  0  0  0  0  0  0
   -2.8948    1.9297   -0.8419 C   0  0  0  0  0  0  0  0  0  0  0  0
   -3.8227    1.9731   -1.9100 C   0  0  0  0  0  0  0  0  0  0  0  0
   -4.9746    1.3902   -1.4408 C   0  0  0  0  0  0  0  0  0  0  0  0
   -4.8160    0.9922   -0.1535 O   0  0  0  0  0  0  0  0  0  0  0  0
   -0.5288   -2.3188    3.3357 H   0  0  0  0  0  0  0  0  0  0  0  0
   -0.6083   -2.1733    1.5829 H   0  0  0  0  0  0  0  0  0  0  0  0
    0.6310    0.1786    3.0769 H   0  0  0  0  0  0  0  0  0  0  0  0
    1.5301   -1.3432    3.1291 H   0  0  0  0  0  0  0  0  0  0  0  0
    2.2761    0.8317   -3.3097 H   0  0  0  0  0  0  0  0  0  0  0  0
    4.4549   -0.1457   -3.9956 H   0  0  0  0  0  0  0  0  0  0  0  0
    5.7339   -1.5602   -2.4088 H   0  0  0  0  0  0  0  0  0  0  0  0
    4.8580   -2.0014   -0.1421 H   0  0  0  0  0  0  0  0  0  0  0  0
    3.0616   -1.5939    1.5071 H   0  0  0  0  0  0  0  0  0  0  0  0
   -1.3540    0.1218    0.8431 H   0  0  0  0  0  0  0  0  0  0  0  0
   -3.9804    0.5674    2.1683 H   0  0  0  0  0  0  0  0  0  0  0  0
   -2.7612    1.8528    2.1213 H   0  0  0  0  0  0  0  0  0  0  0  0
   -1.8746    2.2904   -0.8414 H   0  0  0  0  0  0  0  0  0  0  0  0
   -3.6655    2.3758   -2.8989 H   0  0  0  0  0  0  0  0  0  0  0  0
   -5.9450    1.1917   -1.8729 H   0  0  0  0  0  0  0  0  0  0  0  0
  1  2  2  0
  2  3  1  0
  3  4  1  0
  4  5  1  0
  5  6  2  0
  6  7  1  0
  7  8  2  0
  7  9  1  0
  9 10  2  0
 10 11  1  0
 11 12  2  0
 12 13  1  0
 13 14  2  0
 14 15  1  0
  2 16  1  0
 16 17  1  0
 17 18  1  0
 18 19  2  0
 19 20  1  0
 20 21  2  0
 21 22  1  0
 15  5  1  0
 22 18  1  0
 14  9  1  0
  3 23  1  0
  3 24  1  0
  4 25  1  0
  4 26  1  0
 10 27  1  0
 11 28  1  0
 12 29  1  0
 13 30  1  0
 15 31  1  0
 16 32  1  0
 17 33  1  0
 17 34  1  0
 19 35  1  0
 20 36  1  0
 21 37  1  0
M  END
