
     RDKit          3D

 32 34  0  0  0  0  0  0  0  0999 V2000
    2.9623   -1.1288   -1.0331 O   0  0  0  0  0  0  0  0  0  0  0  0
    2.5801   -0.2881   -0.2285 C   0  0  0  0  0  0  0  0  0  0  0  0
    1.1228    0.0383    0.0046 C   0  0  0  0  0  0  0  0  0  0  0  0
    0.2190   -0.8253   -0.8674 C   0  0  0  0  0  0  0  0  0  0  0  0
   -1.1826   -0.5254   -0.6367 N   0  0  0  0  0  0  0  0  0  0  0  0
   -1.8762    0.4490   -1.3013 C   0  0  0  0  0  0  0  0  0  0  0  0
   -1.4874    1.2116   -2.1645 O   0  0  0  0  0  0  0  0  0  0  0  0
   -3.2249    0.4559   -0.7372 C   0  0  0  0  0  0  0  0  0  0  0  0
   -4.3286    1.2189   -1.0637 C   0  0  0  0  0  0  0  0  0  0  0  0
   -5.4947    1.0036   -0.3220 C   0  0  0  0  0  0  0  0  0  0  0  0
   -5.5270    0.0482    0.7157 C   0  0  0  0  0  0  0  0  0  0  0  0
   -4.3937   -0.7089    1.0301 C   0  0  0  0  0  0  0  0  0  0  0  0
   -3.2566   -0.4811    0.2805 C   0  0  0  0  0  0  0  0  0  0  0  0
   -1.9280   -1.0848    0.3652 C   0  0  0  0  0  0  0  0  0  0  0  0
   -1.5900   -1.8916    1.2097 O   0  0  0  0  0  0  0  0  0  0  0  0
    3.4232    0.4674    0.5527 N   0  0  0  0  0  0  0  0  0  0  0  0
    4.7421    0.1891    0.5373 N   0  0  0  0  0  0  0  0  0  0  0  0
    5.3824   -0.6830    1.3518 C   0  0  0  0  0  0  0  0  0  0  0  0
    6.6799   -0.5356    1.1852 N   0  0  0  0  0  0  0  0  0  0  0  0
    6.8722    0.4561    0.2371 N   0  0  0  0  0  0  0  0  0  0  0  0
    5.6857    0.8813   -0.1432 C   0  0  0  0  0  0  0  0  0  0  0  0
    0.8935   -0.1230    1.0646 H   0  0  0  0  0  0  0  0  0  0  0  0
    0.9616    1.1000   -0.2169 H   0  0  0  0  0  0  0  0  0  0  0  0
    0.3849   -1.8869   -0.6493 H   0  0  0  0  0  0  0  0  0  0  0  0
    0.4410   -0.6569   -1.9277 H   0  0  0  0  0  0  0  0  0  0  0  0
   -4.2892    1.9528   -1.8622 H   0  0  0  0  0  0  0  0  0  0  0  0
   -6.3905    1.5808   -0.5461 H   0  0  0  0  0  0  0  0  0  0  0  0
   -6.4473   -0.0994    1.2788 H   0  0  0  0  0  0  0  0  0  0  0  0
   -4.4041   -1.4446    1.8278 H   0  0  0  0  0  0  0  0  0  0  0  0
    3.0984    1.0257    1.3302 H   0  0  0  0  0  0  0  0  0  0  0  0
    4.8932   -1.3713    2.0241 H   0  0  0  0  0  0  0  0  0  0  0  0
    5.4783    1.6559   -0.8657 H   0  0  0  0  0  0  0  0  0  0  0  0
  1  2  2  0
  2  3  1  0
  3  4  1  0
  4  5  1  0
  5  6  1  0
  6  7  2  0
  6  8  1  0
  8  9  2  0
  9 10  1  0
 10 11  2  0
 11 12  1  0
 12 13  2  0
 13 14  1  0
 14 15  2  0
  2 16  1  0
 16 17  1  0
 17 18  1  0
 18 19  2  0
 19 20  1  0
 20 21  2  0
 14  5  1  0
 21 17  1  0
 13  8  1  0
  3 22  1  0
  3 23  1  0
  4 24  1  0
  4 25  1  0
  9 26  1  0
 10 27  1  0
 11 28  1  0
 12 29  1  0
 16 30  1  0
 18 31  1  0
 21 32  1  0
M  END
