
     RDKit          3D

 37 38  0  0  0  0  0  0  0  0999 V2000
   -1.7440    1.0341    0.8946 O   0  0  0  0  0  0  0  0  0  0  0  0
   -1.4375    0.1426    0.1117 C   0  0  0  0  0  0  0  0  0  0  0  0
    0.0092   -0.1880   -0.2155 C   0  0  0  0  0  0  0  0  0  0  0  0
    0.9781    0.6040    0.6642 C   0  0  0  0  0  0  0  0  0  0  0  0
    2.3836    0.2251    0.4276 N   0  0  0  0  0  0  0  0  0  0  0  0
    2.9176    0.7511   -0.8306 C   0  0  0  0  0  0  0  0  0  0  0  0
    4.2736    0.1026   -1.1391 C   0  0  0  0  0  0  0  0  0  0  0  0
    5.1279   -0.1362    0.1074 C   0  0  0  0  0  0  0  0  0  0  0  0
    4.7121    0.7948    1.2354 C   0  0  0  0  0  0  0  0  0  0  0  0
    3.2213    0.6429    1.5699 C   0  0  0  0  0  0  0  0  0  0  0  0
   -2.3121   -0.6683   -0.5966 N   0  0  0  0  0  0  0  0  0  0  0  0
   -3.7214   -0.6504   -0.5637 C   0  0  0  0  0  0  0  0  0  0  0  0
   -4.3904   -1.5801   -1.3723 C   0  0  0  0  0  0  0  0  0  0  0  0
   -5.7877   -1.6298   -1.3994 C   0  0  0  0  0  0  0  0  0  0  0  0
   -6.5237   -0.7468   -0.6152 C   0  0  0  0  0  0  0  0  0  0  0  0
   -8.4119   -0.8092   -0.6478 Br  0  0  0  0  0  0  0  0  0  0  0  0
   -5.8739    0.1817    0.1926 C   0  0  0  0  0  0  0  0  0  0  0  0
   -4.4750    0.2286    0.2173 C   0  0  0  0  0  0  0  0  0  0  0  0
    0.1646    0.0364   -1.2761 H   0  0  0  0  0  0  0  0  0  0  0  0
    0.1630   -1.2632   -0.0623 H   0  0  0  0  0  0  0  0  0  0  0  0
    0.8375    1.6839    0.5247 H   0  0  0  0  0  0  0  0  0  0  0  0
    0.7210    0.3881    1.7104 H   0  0  0  0  0  0  0  0  0  0  0  0
    2.2543    0.5377   -1.6753 H   0  0  0  0  0  0  0  0  0  0  0  0
    3.0204    1.8433   -0.7823 H   0  0  0  0  0  0  0  0  0  0  0  0
    4.1245   -0.8561   -1.6513 H   0  0  0  0  0  0  0  0  0  0  0  0
    4.8176    0.7479   -1.8395 H   0  0  0  0  0  0  0  0  0  0  0  0
    6.1887   -0.0037   -0.1327 H   0  0  0  0  0  0  0  0  0  0  0  0
    5.0080   -1.1763    0.4361 H   0  0  0  0  0  0  0  0  0  0  0  0
    5.3145    0.5996    2.1297 H   0  0  0  0  0  0  0  0  0  0  0  0
    4.9150    1.8309    0.9355 H   0  0  0  0  0  0  0  0  0  0  0  0
    2.8771    1.5979    1.9889 H   0  0  0  0  0  0  0  0  0  0  0  0
    3.1097   -0.1096    2.3601 H   0  0  0  0  0  0  0  0  0  0  0  0
   -1.8917   -1.3602   -1.2050 H   0  0  0  0  0  0  0  0  0  0  0  0
   -3.8363   -2.2797   -1.9928 H   0  0  0  0  0  0  0  0  0  0  0  0
   -6.2874   -2.3580   -2.0326 H   0  0  0  0  0  0  0  0  0  0  0  0
   -6.4396    0.8756    0.8091 H   0  0  0  0  0  0  0  0  0  0  0  0
   -4.0066    0.9671    0.8607 H   0  0  0  0  0  0  0  0  0  0  0  0
  1  2  2  0
  2  3  1  0
  3  4  1  0
  4  5  1  0
  5  6  1  0
  6  7  1  0
  7  8  1  0
  8  9  1  0
  9 10  1  0
  2 11  1  0
 11 12  1  0
 12 13  2  0
 13 14  1  0
 14 15  2  0
 15 16  1  0
 15 17  1  0
 17 18  2  0
 10  5  1  0
 18 12  1  0
  3 19  1  0
  3 20  1  0
  4 21  1  0
  4 22  1  0
  6 23  1  0
  6 24  1  0
  7 25  1  0
  7 26  1  0
  8 27  1  0
  8 28  1  0
  9 29  1  0
  9 30  1  0
 10 31  1  0
 10 32  1  0
 11 33  1  0
 13 34  1  0
 14 35  1  0
 17 36  1  0
 18 37  1  0
M  END
