
     RDKit          3D

 34 35  0  0  0  0  0  0  0  0999 V2000
    1.0697    0.9250   -2.0277 O   0  0  0  0  0  0  0  0  0  0  0  0
    1.1022    0.4926   -0.8770 C   0  0  0  0  0  0  0  0  0  0  0  0
   -0.1686    0.2855   -0.0873 C   0  0  0  0  0  0  0  0  0  0  0  0
   -0.8779   -0.9648   -0.5878 C   0  0  0  0  0  0  0  0  0  0  0  0
   -2.0401   -1.2892    0.2338 N   0  0  0  0  0  0  0  0  0  0  0  0
   -3.2112   -0.5324    0.1857 C   0  0  0  0  0  0  0  0  0  0  0  0
   -4.1643   -0.7115    1.2001 C   0  0  0  0  0  0  0  0  0  0  0  0
   -5.3844   -0.0283    1.1867 C   0  0  0  0  0  0  0  0  0  0  0  0
   -5.6861    0.8327    0.1377 C   0  0  0  0  0  0  0  0  0  0  0  0
   -4.7733    0.9956   -0.8993 C   0  0  0  0  0  0  0  0  0  0  0  0
   -3.5543    0.3075   -0.8798 C   0  0  0  0  0  0  0  0  0  0  0  0
    2.4238    0.1627   -0.2673 C   0  0  0  0  0  0  0  0  0  0  0  0
    2.5502   -0.7113    0.8211 C   0  0  0  0  0  0  0  0  0  0  0  0
    3.8112   -1.0005    1.3521 C   0  0  0  0  0  0  0  0  0  0  0  0
    4.9551   -0.4248    0.7989 C   0  0  0  0  0  0  0  0  0  0  0  0
    4.8315    0.4416   -0.2949 C   0  0  0  0  0  0  0  0  0  0  0  0
    6.0347    1.0465   -0.8802 N   0  0  0  0  0  4  0  0  0  0  0  0
    7.1335    0.6824   -0.4378 O   0  0  0  0  0  0  0  0  0  0  0  0
    5.8805    1.8868   -1.7766 O   0  0  0  0  0  1  0  0  0  0  0  0
    3.5722    0.7359   -0.8332 C   0  0  0  0  0  0  0  0  0  0  0  0
   -0.7888    1.1791   -0.2260 H   0  0  0  0  0  0  0  0  0  0  0  0
    0.0308    0.2367    0.9875 H   0  0  0  0  0  0  0  0  0  0  0  0
   -0.1908   -1.8181   -0.5296 H   0  0  0  0  0  0  0  0  0  0  0  0
   -1.1431   -0.8837   -1.6483 H   0  0  0  0  0  0  0  0  0  0  0  0
   -1.8123   -1.5972    1.1747 H   0  0  0  0  0  0  0  0  0  0  0  0
   -3.9639   -1.3962    2.0204 H   0  0  0  0  0  0  0  0  0  0  0  0
   -6.0993   -0.1792    1.9908 H   0  0  0  0  0  0  0  0  0  0  0  0
   -6.6343    1.3628    0.1195 H   0  0  0  0  0  0  0  0  0  0  0  0
   -5.0093    1.6506   -1.7340 H   0  0  0  0  0  0  0  0  0  0  0  0
   -2.8848    0.4479   -1.7228 H   0  0  0  0  0  0  0  0  0  0  0  0
    1.6862   -1.1969    1.2667 H   0  0  0  0  0  0  0  0  0  0  0  0
    3.9027   -1.6816    2.1965 H   0  0  0  0  0  0  0  0  0  0  0  0
    5.9284   -0.6621    1.2253 H   0  0  0  0  0  0  0  0  0  0  0  0
    3.4743    1.4059   -1.6873 H   0  0  0  0  0  0  0  0  0  0  0  0
  1  2  2  0
  2  3  1  0
  3  4  1  0
  4  5  1  0
  5  6  1  0
  6  7  2  0
  7  8  1  0
  8  9  2  0
  9 10  1  0
 10 11  2  0
  2 12  1  0
 12 13  2  0
 13 14  1  0
 14 15  2  0
 15 16  1  0
 16 17  1  0
 17 18  2  0
 17 19  1  0
 16 20  2  0
 11  6  1  0
 20 12  1  0
  3 21  1  0
  3 22  1  0
  4 23  1  0
  4 24  1  0
  5 25  1  0
  7 26  1  0
  8 27  1  0
  9 28  1  0
 10 29  1  0
 11 30  1  0
 13 31  1  0
 14 32  1  0
 15 33  1  0
 20 34  1  0
M  CHG  2  17   1  19  -1
M  END
