
     RDKit          3D

 35 36  0  0  0  0  0  0  0  0999 V2000
   -3.1558    1.3783   -2.2445 O   0  0  0  0  0  0  0  0  0  0  0  0
   -2.5059    0.3697   -1.9866 C   0  0  0  0  0  0  0  0  0  0  0  0
   -1.4280   -0.1446   -2.9464 C   0  0  0  0  0  0  0  0  0  0  0  0
   -0.4027   -0.9208   -2.3188 O   0  0  0  0  0  0  0  0  0  0  0  0
    0.5405   -0.1866   -1.6639 C   0  0  0  0  0  0  0  0  0  0  0  0
    0.5384    1.0342   -1.5610 O   0  0  0  0  0  0  0  0  0  0  0  0
    1.6024   -1.0939   -1.0679 C   0  0  0  0  0  0  0  0  0  0  0  0
    2.5698   -0.3058   -0.3269 N   0  0  0  0  0  0  0  0  0  0  0  0
    3.6350   -0.9048    0.3118 C   0  0  0  0  0  0  0  0  0  0  0  0
    3.7816   -2.1248    0.2676 O   0  0  0  0  0  0  0  0  0  0  0  0
    4.5287    0.0010    1.0094 C   0  0  0  0  0  0  0  0  0  0  0  0
    4.5425    1.3752    1.1893 C   0  0  0  0  0  0  0  0  0  0  0  0
    5.6830    1.6788    1.9741 C   0  0  0  0  0  0  0  0  0  0  0  0
    6.2997    0.4789    2.2291 C   0  0  0  0  0  0  0  0  0  0  0  0
    5.6133   -0.5385    1.6531 O   0  0  0  0  0  0  0  0  0  0  0  0
   -2.6776   -0.4497   -0.8945 N   0  0  0  0  0  0  0  0  0  0  0  0
   -3.5486   -0.2956    0.1802 C   0  0  0  0  0  0  0  0  0  0  0  0
   -4.4192    0.7757    0.3371 C   0  0  0  0  0  0  0  0  0  0  0  0
   -5.2427    0.8189    1.4650 C   0  0  0  0  0  0  0  0  0  0  0  0
   -5.1703   -0.2048    2.3981 C   0  0  0  0  0  0  0  0  0  0  0  0
   -6.1622   -0.1919    3.7965 Cl  0  0  0  0  0  0  0  0  0  0  0  0
   -4.2741   -1.2338    2.1662 C   0  0  0  0  0  0  0  0  0  0  0  0
   -3.4632   -1.3002    1.0799 N   0  0  0  0  0  0  0  0  0  0  0  0
   -1.9229   -0.7905   -3.6794 H   0  0  0  0  0  0  0  0  0  0  0  0
   -0.9908    0.6995   -3.4929 H   0  0  0  0  0  0  0  0  0  0  0  0
    2.1258   -1.6245   -1.8687 H   0  0  0  0  0  0  0  0  0  0  0  0
    1.1360   -1.8048   -0.3792 H   0  0  0  0  0  0  0  0  0  0  0  0
    2.4465    0.6998   -0.3083 H   0  0  0  0  0  0  0  0  0  0  0  0
    3.8214    2.0829    0.8061 H   0  0  0  0  0  0  0  0  0  0  0  0
    6.0140    2.6508    2.3122 H   0  0  0  0  0  0  0  0  0  0  0  0
    7.1876    0.1918    2.7754 H   0  0  0  0  0  0  0  0  0  0  0  0
   -2.1192   -1.2907   -0.8251 H   0  0  0  0  0  0  0  0  0  0  0  0
   -4.4800    1.5815   -0.3850 H   0  0  0  0  0  0  0  0  0  0  0  0
   -5.9287    1.6501    1.6015 H   0  0  0  0  0  0  0  0  0  0  0  0
   -4.1744   -2.0610    2.8633 H   0  0  0  0  0  0  0  0  0  0  0  0
  1  2  2  0
  2  3  1  0
  3  4  1  0
  4  5  1  0
  5  6  2  0
  5  7  1  0
  7  8  1  0
  8  9  1  0
  9 10  2  0
  9 11  1  0
 11 12  2  0
 12 13  1  0
 13 14  2  0
 14 15  1  0
  2 16  1  0
 16 17  1  0
 17 18  2  0
 18 19  1  0
 19 20  2  0
 20 21  1  0
 20 22  1  0
 22 23  2  0
 15 11  1  0
 23 17  1  0
  3 24  1  0
  3 25  1  0
  7 26  1  0
  7 27  1  0
  8 28  1  0
 12 29  1  0
 13 30  1  0
 14 31  1  0
 16 32  1  0
 18 33  1  0
 19 34  1  0
 22 35  1  0
M  END
