
     RDKit          3D

 39 41  0  0  0  0  0  0  0  0999 V2000
    2.4782   -1.0678    1.9373 O   0  0  0  0  0  0  0  0  0  0  0  0
    2.1333   -0.5089    0.8997 C   0  0  0  0  0  0  0  0  0  0  0  0
    0.6502   -0.3802    0.5417 C   0  0  0  0  0  0  0  0  0  0  0  0
    0.4402    0.5157   -0.5618 O   0  0  0  0  0  0  0  0  0  0  0  0
   -0.8549    0.7166   -0.9055 C   0  0  0  0  0  0  0  0  0  0  0  0
   -0.9203    1.6910   -1.9850 C   0  0  0  0  0  0  0  0  0  0  0  0
   -2.1483    1.9771   -2.4130 C   0  0  0  0  0  0  0  0  0  0  0  0
   -3.3570    1.3446   -1.8203 C   0  0  0  0  0  0  0  0  0  0  0  0
   -4.4338    1.6990   -2.2949 O   0  0  0  0  0  0  0  0  0  0  0  0
   -3.1240    0.4177   -0.7895 N   0  0  0  0  0  0  0  0  0  0  0  0
   -4.1619   -0.2990   -0.0884 C   0  0  0  0  0  0  0  0  0  0  0  0
   -3.8275   -1.1903    0.9518 C   0  0  0  0  0  0  0  0  0  0  0  0
   -4.8042   -1.9022    1.6582 C   0  0  0  0  0  0  0  0  0  0  0  0
   -6.1469   -1.7394    1.3433 C   0  0  0  0  0  0  0  0  0  0  0  0
   -6.5075   -0.8667    0.3231 C   0  0  0  0  0  0  0  0  0  0  0  0
   -5.5258   -0.1568   -0.3838 C   0  0  0  0  0  0  0  0  0  0  0  0
   -1.8414    0.1146   -0.3412 N   0  0  0  0  0  0  0  0  0  0  0  0
    2.9664    0.0356   -0.0623 N   0  0  0  0  0  0  0  0  0  0  0  0
    4.3729    0.0867   -0.0690 C   0  0  0  0  0  0  0  0  0  0  0  0
    5.1768   -0.4448    0.9407 C   0  0  0  0  0  0  0  0  0  0  0  0
    6.5700   -0.3511    0.8595 C   0  0  0  0  0  0  0  0  0  0  0  0
    7.1703    0.2751   -0.2312 C   0  0  0  0  0  0  0  0  0  0  0  0
    6.3776    0.8071   -1.2440 C   0  0  0  0  0  0  0  0  0  0  0  0
    4.9858    0.7123   -1.1635 C   0  0  0  0  0  0  0  0  0  0  0  0
    0.1304    0.0023    1.4281 H   0  0  0  0  0  0  0  0  0  0  0  0
    0.2882   -1.3806    0.2788 H   0  0  0  0  0  0  0  0  0  0  0  0
   -0.0243    2.1303   -2.3957 H   0  0  0  0  0  0  0  0  0  0  0  0
   -2.3277    2.6816   -3.2160 H   0  0  0  0  0  0  0  0  0  0  0  0
   -2.7898   -1.3488    1.2353 H   0  0  0  0  0  0  0  0  0  0  0  0
   -4.5094   -2.5796    2.4558 H   0  0  0  0  0  0  0  0  0  0  0  0
   -6.9095   -2.2897    1.8884 H   0  0  0  0  0  0  0  0  0  0  0  0
   -7.5560   -0.7349    0.0638 H   0  0  0  0  0  0  0  0  0  0  0  0
   -5.8807    0.5016   -1.1684 H   0  0  0  0  0  0  0  0  0  0  0  0
    2.4885    0.4658   -0.8471 H   0  0  0  0  0  0  0  0  0  0  0  0
    4.7520   -0.9407    1.8094 H   0  0  0  0  0  0  0  0  0  0  0  0
    7.1836   -0.7697    1.6540 H   0  0  0  0  0  0  0  0  0  0  0  0
    8.2530    0.3451   -0.2902 H   0  0  0  0  0  0  0  0  0  0  0  0
    6.8423    1.2946   -2.0972 H   0  0  0  0  0  0  0  0  0  0  0  0
    4.3911    1.1367   -1.9683 H   0  0  0  0  0  0  0  0  0  0  0  0
  1  2  2  0
  2  3  1  0
  3  4  1  0
  4  5  1  0
  5  6  1  0
  6  7  2  0
  7  8  1  0
  8  9  2  0
  8 10  1  0
 10 11  1  0
 11 12  2  0
 12 13  1  0
 13 14  2  0
 14 15  1  0
 15 16  2  0
 10 17  1  0
  2 18  1  0
 18 19  1  0
 19 20  2  0
 20 21  1  0
 21 22  2  0
 22 23  1  0
 23 24  2  0
 17  5  2  0
 24 19  1  0
 16 11  1  0
  3 25  1  0
  3 26  1  0
  6 27  1  0
  7 28  1  0
 12 29  1  0
 13 30  1  0
 14 31  1  0
 15 32  1  0
 16 33  1  0
 18 34  1  0
 20 35  1  0
 21 36  1  0
 22 37  1  0
 23 38  1  0
 24 39  1  0
M  END
