
     RDKit          3D

 48 50  0  0  0  0  0  0  0  0999 V2000
    2.6159    1.7852   -2.9296 O   0  0  0  0  0  0  0  0  0  0  0  0
    2.6109    1.2179   -1.8394 C   0  0  0  0  0  0  0  0  0  0  0  0
    3.8690    0.5820   -1.2474 C   0  0  0  0  0  0  0  0  0  0  0  0
    3.5278   -0.3061   -0.1830 O   0  0  0  0  0  0  0  0  0  0  0  0
    4.5656   -0.9052    0.4775 C   0  0  0  0  0  0  0  0  0  0  0  0
    4.1821   -1.7225    1.5447 C   0  0  0  0  0  0  0  0  0  0  0  0
    5.1408   -2.3929    2.3076 C   0  0  0  0  0  0  0  0  0  0  0  0
    6.4930   -2.2504    2.0046 C   0  0  0  0  0  0  0  0  0  0  0  0
    6.8831   -1.4400    0.9394 C   0  0  0  0  0  0  0  0  0  0  0  0
    5.9224   -0.7677    0.1757 C   0  0  0  0  0  0  0  0  0  0  0  0
    1.4990    1.1437   -1.0219 N   0  0  0  0  0  0  0  0  0  0  0  0
    0.1838    1.6001   -1.4509 C   0  0  0  0  0  0  0  0  0  0  0  0
   -0.4822    0.5612   -2.3620 C   0  0  0  0  0  0  0  0  0  0  0  0
   -2.0009    0.6542   -2.2626 C   0  0  0  0  0  0  0  0  0  0  0  0
   -2.4781    0.3263   -0.9112 N   0  0  0  0  0  0  0  0  0  0  0  0
   -3.8713    0.7657   -0.7305 C   0  0  0  0  0  0  0  0  0  0  0  0
   -4.5650    0.0826    0.4307 C   0  0  0  0  0  0  0  0  0  0  0  0
   -5.0396    0.8297    1.5177 C   0  0  0  0  0  0  0  0  0  0  0  0
   -5.6874    0.1967    2.5805 C   0  0  0  0  0  0  0  0  0  0  0  0
   -5.8744   -1.1850    2.5642 C   0  0  0  0  0  0  0  0  0  0  0  0
   -5.4110   -1.9386    1.4879 C   0  0  0  0  0  0  0  0  0  0  0  0
   -4.7585   -1.3091    0.4278 C   0  0  0  0  0  0  0  0  0  0  0  0
   -1.5835    0.7855    0.1606 C   0  0  0  0  0  0  0  0  0  0  0  0
   -0.6900    1.9544   -0.2439 C   0  0  0  0  0  0  0  0  0  0  0  0
    4.3663    0.0310   -2.0526 H   0  0  0  0  0  0  0  0  0  0  0  0
    4.4956    1.4017   -0.8789 H   0  0  0  0  0  0  0  0  0  0  0  0
    3.1280   -1.8390    1.7858 H   0  0  0  0  0  0  0  0  0  0  0  0
    4.8307   -3.0248    3.1358 H   0  0  0  0  0  0  0  0  0  0  0  0
    7.2422   -2.7712    2.5958 H   0  0  0  0  0  0  0  0  0  0  0  0
    7.9389   -1.3300    0.7008 H   0  0  0  0  0  0  0  0  0  0  0  0
    6.2712   -0.1499   -0.6461 H   0  0  0  0  0  0  0  0  0  0  0  0
    1.5606    0.4686   -0.2620 H   0  0  0  0  0  0  0  0  0  0  0  0
    0.3419    2.5201   -2.0281 H   0  0  0  0  0  0  0  0  0  0  0  0
   -0.1627    0.7191   -3.3991 H   0  0  0  0  0  0  0  0  0  0  0  0
   -0.1606   -0.4553   -2.0955 H   0  0  0  0  0  0  0  0  0  0  0  0
   -2.4500   -0.0453   -2.9770 H   0  0  0  0  0  0  0  0  0  0  0  0
   -2.3143    1.6642   -2.5597 H   0  0  0  0  0  0  0  0  0  0  0  0
   -4.4611    0.5238   -1.6257 H   0  0  0  0  0  0  0  0  0  0  0  0
   -3.9186    1.8568   -0.6228 H   0  0  0  0  0  0  0  0  0  0  0  0
   -4.9025    1.9089    1.5453 H   0  0  0  0  0  0  0  0  0  0  0  0
   -6.0482    0.7835    3.4203 H   0  0  0  0  0  0  0  0  0  0  0  0
   -6.3807   -1.6770    3.3903 H   0  0  0  0  0  0  0  0  0  0  0  0
   -5.5596   -3.0164    1.4731 H   0  0  0  0  0  0  0  0  0  0  0  0
   -4.3940   -1.9059   -0.4048 H   0  0  0  0  0  0  0  0  0  0  0  0
   -0.9451   -0.0613    0.4435 H   0  0  0  0  0  0  0  0  0  0  0  0
   -2.1289    1.0528    1.0711 H   0  0  0  0  0  0  0  0  0  0  0  0
   -0.0736    2.2677    0.6051 H   0  0  0  0  0  0  0  0  0  0  0  0
   -1.3272    2.8103   -0.4961 H   0  0  0  0  0  0  0  0  0  0  0  0
  1  2  2  0
  2  3  1  0
  3  4  1  0
  4  5  1  0
  5  6  2  0
  6  7  1  0
  7  8  2  0
  8  9  1  0
  9 10  2  0
  2 11  1  0
 11 12  1  0
 12 13  1  0
 13 14  1  0
 14 15  1  0
 15 16  1  0
 16 17  1  0
 17 18  2  0
 18 19  1  0
 19 20  2  0
 20 21  1  0
 21 22  2  0
 15 23  1  0
 23 24  1  0
 10  5  1  0
 24 12  1  0
 22 17  1  0
  3 25  1  0
  3 26  1  0
  6 27  1  0
  7 28  1  0
  8 29  1  0
  9 30  1  0
 10 31  1  0
 11 32  1  0
 12 33  1  0
 13 34  1  0
 13 35  1  0
 14 36  1  0
 14 37  1  0
 16 38  1  0
 16 39  1  0
 18 40  1  0
 19 41  1  0
 20 42  1  0
 21 43  1  0
 22 44  1  0
 23 45  1  0
 23 46  1  0
 24 47  1  0
 24 48  1  0
M  END
