
     RDKit          3D

 31 32  0  0  0  0  0  0  0  0999 V2000
    1.5426    1.1866   -2.4049 O   0  0  0  0  0  0  0  0  0  0  0  0
    0.8774    0.8074   -1.4456 C   0  0  0  0  0  0  0  0  0  0  0  0
   -0.6472    0.9462   -1.4473 C   0  0  0  0  0  0  0  0  0  0  0  0
   -1.2409   -0.0442   -0.6082 O   0  0  0  0  0  0  0  0  0  0  0  0
   -2.6055    0.0023   -0.4783 C   0  0  0  0  0  0  0  0  0  0  0  0
   -3.4503    0.9748   -1.0145 C   0  0  0  0  0  0  0  0  0  0  0  0
   -4.8294    0.9101   -0.7811 C   0  0  0  0  0  0  0  0  0  0  0  0
   -5.3700   -0.1225   -0.0133 C   0  0  0  0  0  0  0  0  0  0  0  0
   -4.5349   -1.1002    0.5210 C   0  0  0  0  0  0  0  0  0  0  0  0
   -3.1677   -1.0322    0.2806 C   0  0  0  0  0  0  0  0  0  0  0  0
   -2.3773   -2.0205    0.8020 O   0  0  0  0  0  0  0  0  0  0  0  0
    1.3629    0.2845   -0.2585 N   0  0  0  0  0  0  0  0  0  0  0  0
    2.7017    0.0440    0.1009 C   0  0  0  0  0  0  0  0  0  0  0  0
    2.9333   -0.5050    1.3697 C   0  0  0  0  0  0  0  0  0  0  0  0
    4.2351   -0.7747    1.8036 C   0  0  0  0  0  0  0  0  0  0  0  0
    5.3128   -0.4957    0.9686 C   0  0  0  0  0  0  0  0  0  0  0  0
    6.9151   -0.8258    1.4988 Cl  0  0  0  0  0  0  0  0  0  0  0  0
    5.0971    0.0495   -0.2936 C   0  0  0  0  0  0  0  0  0  0  0  0
    3.7931    0.3188   -0.7262 C   0  0  0  0  0  0  0  0  0  0  0  0
   -0.9938    0.8141   -2.4786 H   0  0  0  0  0  0  0  0  0  0  0  0
   -0.8708    1.9548   -1.0809 H   0  0  0  0  0  0  0  0  0  0  0  0
   -3.0791    1.7980   -1.6157 H   0  0  0  0  0  0  0  0  0  0  0  0
   -5.4855    1.6702   -1.1996 H   0  0  0  0  0  0  0  0  0  0  0  0
   -6.4414   -0.1669    0.1650 H   0  0  0  0  0  0  0  0  0  0  0  0
   -4.9448   -1.9122    1.1141 H   0  0  0  0  0  0  0  0  0  0  0  0
   -1.4934   -1.8752    0.4189 H   0  0  0  0  0  0  0  0  0  0  0  0
    0.6533    0.0315    0.4215 H   0  0  0  0  0  0  0  0  0  0  0  0
    2.1071   -0.7303    2.0396 H   0  0  0  0  0  0  0  0  0  0  0  0
    4.3987   -1.2002    2.7900 H   0  0  0  0  0  0  0  0  0  0  0  0
    5.9345    0.2695   -0.9506 H   0  0  0  0  0  0  0  0  0  0  0  0
    3.6673    0.7435   -1.7174 H   0  0  0  0  0  0  0  0  0  0  0  0
  1  2  2  0
  2  3  1  0
  3  4  1  0
  4  5  1  0
  5  6  2  0
  6  7  1  0
  7  8  2  0
  8  9  1  0
  9 10  2  0
 10 11  1  0
  2 12  1  0
 12 13  1  0
 13 14  2  0
 14 15  1  0
 15 16  2  0
 16 17  1  0
 16 18  1  0
 18 19  2  0
 10  5  1  0
 19 13  1  0
  3 20  1  0
  3 21  1  0
  6 22  1  0
  7 23  1  0
  8 24  1  0
  9 25  1  0
 11 26  1  0
 12 27  1  0
 14 28  1  0
 15 29  1  0
 18 30  1  0
 19 31  1  0
M  END
