
     RDKit          3D

 37 39  0  0  0  0  0  0  0  0999 V2000
    0.6678   -2.3810   -0.6690 O   0  0  0  0  0  0  0  0  0  0  0  0
    0.2225   -1.2357   -0.6305 C   0  0  0  0  0  0  0  0  0  0  0  0
   -1.2611   -1.0275   -0.7612 C   0  0  0  0  0  0  0  0  0  0  0  0
   -1.6169    0.2192   -1.9643 S   0  0  0  0  0  6  0  0  0  0  0  0
   -1.1151   -0.2345   -3.2479 O   0  0  0  0  0  0  0  0  0  0  0  0
   -1.1443    1.4829   -1.4170 O   0  0  0  0  0  0  0  0  0  0  0  0
   -3.4041    0.2614   -2.0888 C   0  0  0  0  0  0  0  0  0  0  0  0
   -4.0407    0.3566   -0.7294 C   0  0  0  0  0  0  0  0  0  0  0  0
   -4.0176    1.5586   -0.0072 C   0  0  0  0  0  0  0  0  0  0  0  0
   -4.5967    1.6351    1.2599 C   0  0  0  0  0  0  0  0  0  0  0  0
   -5.2116    0.5156    1.8156 C   0  0  0  0  0  0  0  0  0  0  0  0
   -5.2531   -0.6807    1.1031 C   0  0  0  0  0  0  0  0  0  0  0  0
   -4.6744   -0.7608   -0.1642 C   0  0  0  0  0  0  0  0  0  0  0  0
    0.9402   -0.0895   -0.3655 N   0  0  0  0  0  0  0  0  0  0  0  0
    2.2892   -0.0992   -0.1410 C   0  0  0  0  0  0  0  0  0  0  0  0
    3.1040   -1.1127   -0.0330 N   0  0  0  0  0  0  0  0  0  0  0  0
    4.3876   -0.6489    0.1961 C   0  0  0  0  0  0  0  0  0  0  0  0
    5.5387   -1.4458    0.3590 C   0  0  0  0  0  0  0  0  0  0  0  0
    6.7784   -0.8395    0.5874 C   0  0  0  0  0  0  0  0  0  0  0  0
    6.8834    0.5465    0.6555 C   0  0  0  0  0  0  0  0  0  0  0  0
    5.7571    1.3605    0.4977 C   0  0  0  0  0  0  0  0  0  0  0  0
    4.5174    0.7408    0.2684 C   0  0  0  0  0  0  0  0  0  0  0  0
    2.9659    1.4552    0.0365 S   0  0  0  0  0  0  0  0  0  0  0  0
   -1.6585   -0.7270    0.2107 H   0  0  0  0  0  0  0  0  0  0  0  0
   -1.7357   -1.9549   -1.0939 H   0  0  0  0  0  0  0  0  0  0  0  0
   -3.7155   -0.6472   -2.6147 H   0  0  0  0  0  0  0  0  0  0  0  0
   -3.6752    1.1218   -2.7090 H   0  0  0  0  0  0  0  0  0  0  0  0
   -3.5448    2.4481   -0.4228 H   0  0  0  0  0  0  0  0  0  0  0  0
   -4.5706    2.5709    1.8133 H   0  0  0  0  0  0  0  0  0  0  0  0
   -5.6648    0.5778    2.8019 H   0  0  0  0  0  0  0  0  0  0  0  0
   -5.7421   -1.5509    1.5349 H   0  0  0  0  0  0  0  0  0  0  0  0
   -4.7287   -1.7050   -0.7036 H   0  0  0  0  0  0  0  0  0  0  0  0
    0.5102    0.8293   -0.4371 H   0  0  0  0  0  0  0  0  0  0  0  0
    5.4499   -2.5264    0.3036 H   0  0  0  0  0  0  0  0  0  0  0  0
    7.6636   -1.4590    0.7111 H   0  0  0  0  0  0  0  0  0  0  0  0
    7.8545    1.0044    0.8328 H   0  0  0  0  0  0  0  0  0  0  0  0
    5.8411    2.4416    0.5500 H   0  0  0  0  0  0  0  0  0  0  0  0
  1  2  2  0
  2  3  1  0
  3  4  1  0
  4  5  2  0
  4  6  2  0
  4  7  1  0
  7  8  1  0
  8  9  2  0
  9 10  1  0
 10 11  2  0
 11 12  1  0
 12 13  2  0
  2 14  1  0
 14 15  1  0
 15 16  2  0
 16 17  1  0
 17 18  2  0
 18 19  1  0
 19 20  2  0
 20 21  1  0
 21 22  2  0
 22 23  1  0
 13  8  1  0
 23 15  1  0
 22 17  1  0
  3 24  1  0
  3 25  1  0
  7 26  1  0
  7 27  1  0
  9 28  1  0
 10 29  1  0
 11 30  1  0
 12 31  1  0
 13 32  1  0
 14 33  1  0
 18 34  1  0
 19 35  1  0
 20 36  1  0
 21 37  1  0
M  END
