
     RDKit          3D

 33 35  0  0  0  0  0  0  0  0999 V2000
    0.7904   -1.2437   -3.1242 O   0  0  0  0  0  0  0  0  0  0  0  0
    0.7041   -0.1414   -2.5889 C   0  0  0  0  0  0  0  0  0  0  0  0
    1.6259    0.9951   -3.0265 C   0  0  0  0  0  0  0  0  0  0  0  0
    2.0036    2.1752   -1.6933 S   0  0  0  0  0  0  0  0  0  0  0  0
    2.7648    1.0959   -0.5721 C   0  0  0  0  0  0  0  0  0  0  0  0
    3.4982    0.1015   -0.9352 N   0  0  0  0  0  0  0  0  0  0  0  0
    3.9094   -0.6501    0.2697 C   0  0  0  0  0  0  0  0  0  0  0  0
    3.8935    0.2648    1.4854 C   0  0  0  0  0  0  0  0  0  0  0  0
    2.5297    1.3857    1.1233 S   0  0  0  0  0  0  0  0  0  0  0  0
   -0.2316    0.2256   -1.6344 N   0  0  0  0  0  0  0  0  0  0  0  0
   -1.2220   -0.5768   -1.0099 C   0  0  0  0  0  0  0  0  0  0  0  0
   -1.4258   -1.9019   -1.3869 C   0  0  0  0  0  0  0  0  0  0  0  0
   -2.4075   -2.6291   -0.7466 C   0  0  0  0  0  0  0  0  0  0  0  0
   -3.1897   -2.1369    0.2308 N   0  0  0  0  0  0  0  0  0  0  0  0
   -3.0036   -0.8647    0.6071 C   0  0  0  0  0  0  0  0  0  0  0  0
   -3.8178   -0.3767    1.6201 C   0  0  0  0  0  0  0  0  0  0  0  0
   -3.7078    0.9297    2.0953 C   0  0  0  0  0  0  0  0  0  0  0  0
   -2.7585    1.7761    1.5473 C   0  0  0  0  0  0  0  0  0  0  0  0
   -1.9281    1.3112    0.5262 C   0  0  0  0  0  0  0  0  0  0  0  0
   -2.0289   -0.0177    0.0271 C   0  0  0  0  0  0  0  0  0  0  0  0
    1.1297    1.5350   -3.8391 H   0  0  0  0  0  0  0  0  0  0  0  0
    2.5576    0.5735   -3.4164 H   0  0  0  0  0  0  0  0  0  0  0  0
    3.2284   -1.4995    0.4068 H   0  0  0  0  0  0  0  0  0  0  0  0
    4.9139   -1.0606    0.1217 H   0  0  0  0  0  0  0  0  0  0  0  0
    4.8207    0.8426    1.5500 H   0  0  0  0  0  0  0  0  0  0  0  0
    3.7446   -0.2842    2.4185 H   0  0  0  0  0  0  0  0  0  0  0  0
   -0.1571    1.1841   -1.3201 H   0  0  0  0  0  0  0  0  0  0  0  0
   -0.8558   -2.3932   -2.1645 H   0  0  0  0  0  0  0  0  0  0  0  0
   -2.5973   -3.6646   -1.0153 H   0  0  0  0  0  0  0  0  0  0  0  0
   -4.5634   -1.0390    2.0556 H   0  0  0  0  0  0  0  0  0  0  0  0
   -4.3621    1.2757    2.8909 H   0  0  0  0  0  0  0  0  0  0  0  0
   -2.6595    2.7957    1.9117 H   0  0  0  0  0  0  0  0  0  0  0  0
   -1.1978    2.0125    0.1358 H   0  0  0  0  0  0  0  0  0  0  0  0
  1  2  2  0
  2  3  1  0
  3  4  1  0
  4  5  1  0
  5  6  2  0
  6  7  1  0
  7  8  1  0
  8  9  1  0
  2 10  1  0
 10 11  1  0
 11 12  2  0
 12 13  1  0
 13 14  2  0
 14 15  1  0
 15 16  2  0
 16 17  1  0
 17 18  2  0
 18 19  1  0
 19 20  2  0
  9  5  1  0
 20 11  1  0
 20 15  1  0
  3 21  1  0
  3 22  1  0
  7 23  1  0
  7 24  1  0
  8 25  1  0
  8 26  1  0
 10 27  1  0
 12 28  1  0
 13 29  1  0
 16 30  1  0
 17 31  1  0
 18 32  1  0
 19 33  1  0
M  END
