
     RDKit          3D

 32 33  0  0  0  0  0  0  0  0999 V2000
    0.6540    1.7804    0.8624 O   0  0  0  0  0  0  0  0  0  0  0  0
    0.0851    0.8048    0.3738 C   0  0  0  0  0  0  0  0  0  0  0  0
   -1.4234    0.7954    0.1805 C   0  0  0  0  0  0  0  0  0  0  0  0
   -2.1588   -0.7839    0.7287 S   0  0  0  0  0  0  0  0  0  0  0  0
   -3.8561   -0.5019    0.2638 C   0  0  0  0  0  0  0  0  0  0  0  0
   -4.4691   -1.3750   -0.6414 C   0  0  0  0  0  0  0  0  0  0  0  0
   -5.8019   -1.1823   -1.0164 C   0  0  0  0  0  0  0  0  0  0  0  0
   -6.5257   -0.1208   -0.4781 C   0  0  0  0  0  0  0  0  0  0  0  0
   -8.1656    0.1171   -0.9384 Cl  0  0  0  0  0  0  0  0  0  0  0  0
   -5.9297    0.7459    0.4355 C   0  0  0  0  0  0  0  0  0  0  0  0
   -4.5965    0.5525    0.8095 C   0  0  0  0  0  0  0  0  0  0  0  0
    0.7166   -0.3319   -0.1316 N   0  0  0  0  0  0  0  0  0  0  0  0
    2.0500   -0.6158    0.0288 N   0  0  0  0  0  0  0  0  0  0  0  0
    2.8924    0.3601   -0.1050 C   0  0  0  0  0  0  0  0  0  0  0  0
    4.3367    0.1616    0.0956 C   0  0  0  0  0  0  0  0  0  0  0  0
    4.8754   -1.0782    0.4354 C   0  0  0  0  0  0  0  0  0  0  0  0
    6.2528   -1.1942    0.6064 C   0  0  0  0  0  0  0  0  0  0  0  0
    7.0365   -0.0635    0.4294 C   0  0  0  0  0  0  0  0  0  0  0  0
    6.5422    1.1513    0.1002 N   0  0  0  0  0  0  0  0  0  0  0  0
    5.1989    1.2379   -0.0565 C   0  0  0  0  0  0  0  0  0  0  0  0
   -1.8477    1.6163    0.7664 H   0  0  0  0  0  0  0  0  0  0  0  0
   -1.6371    0.9651   -0.8797 H   0  0  0  0  0  0  0  0  0  0  0  0
   -3.9174   -2.2125   -1.0630 H   0  0  0  0  0  0  0  0  0  0  0  0
   -6.2673   -1.8646   -1.7229 H   0  0  0  0  0  0  0  0  0  0  0  0
   -6.4966    1.5677    0.8654 H   0  0  0  0  0  0  0  0  0  0  0  0
   -4.1532    1.2252    1.5399 H   0  0  0  0  0  0  0  0  0  0  0  0
    0.1343   -1.1672   -0.1754 H   0  0  0  0  0  0  0  0  0  0  0  0
    2.5816    1.3770   -0.4015 H   0  0  0  0  0  0  0  0  0  0  0  0
    4.2341   -1.9452    0.5680 H   0  0  0  0  0  0  0  0  0  0  0  0
    6.7039   -2.1438    0.8722 H   0  0  0  0  0  0  0  0  0  0  0  0
    8.1154   -0.1062    0.5523 H   0  0  0  0  0  0  0  0  0  0  0  0
    4.8361    2.2290   -0.3138 H   0  0  0  0  0  0  0  0  0  0  0  0
  1  2  2  0
  2  3  1  0
  3  4  1  0
  4  5  1  0
  5  6  2  0
  6  7  1  0
  7  8  2  0
  8  9  1  0
  8 10  1  0
 10 11  2  0
  2 12  1  0
 12 13  1  0
 13 14  2  3
 14 15  1  0
 15 16  2  0
 16 17  1  0
 17 18  2  0
 18 19  1  0
 19 20  2  0
 11  5  1  0
 20 15  1  0
  3 21  1  0
  3 22  1  0
  6 23  1  0
  7 24  1  0
 10 25  1  0
 11 26  1  0
 12 27  1  0
 14 28  1  0
 16 29  1  0
 17 30  1  0
 18 31  1  0
 20 32  1  0
M  END
