
     RDKit          3D

 44 51  0  0  0  0  0  0  0  0999 V2000
    4.8544   -0.1647   -1.9108 Si  0  0  0  0  0  4  0  0  0  0  0  0
    6.7356    0.1622   -1.7699 C   0  0  0  0  0  0  0  0  0  0  0  0
    7.0511    0.7209   -0.5808 C   0  0  0  0  0  0  0  0  0  0  0  0
    5.9400    0.9405    0.2935 C   0  0  0  0  0  0  0  0  0  0  0  0
    5.8871    1.4850    1.5475 C   0  0  0  0  0  0  0  0  0  0  0  0
    4.2612    1.5115    2.1317 S   0  0  0  0  0  0  0  0  0  0  0  0
    3.6282    0.7831    0.6931 C   0  0  0  0  0  0  0  0  0  0  0  0
    4.6568    0.5485   -0.1732 C   0  0  0  0  0  0  0  0  0  0  0  0
    2.2012    0.5126    0.5820 C   0  0  0  0  0  0  0  0  0  0  0  0
    1.7190   -0.7727    0.4235 C   0  0  0  0  0  0  0  0  0  0  0  0
    0.4060   -1.0927    0.2885 N   0  0  0  0  0  0  0  0  0  0  0  0
   -0.5446   -0.1312    0.3128 C   0  0  0  0  0  0  0  0  0  0  0  0
   -0.1253    1.2158    0.4782 C   0  0  0  0  0  0  0  0  0  0  0  0
    1.2538    1.5268    0.6103 C   0  0  0  0  0  0  0  0  0  0  0  0
   -1.1921    2.1553    0.4905 C   0  0  0  0  0  0  0  0  0  0  0  0
   -0.9858    3.5094    0.6427 C   0  0  0  0  0  0  0  0  0  0  0  0
   -2.4483    4.3892    0.6179 S   0  0  0  0  0  0  0  0  0  0  0  0
   -3.3684    2.9578    0.4045 C   0  0  0  0  0  0  0  0  0  0  0  0
   -2.6001    1.8152    0.3490 C   0  0  0  0  0  0  0  0  0  0  0  0
   -3.0796    0.4919    0.1805 C   0  0  0  0  0  0  0  0  0  0  0  0
   -4.4604    0.0863    0.0334 C   0  0  0  0  0  0  0  0  0  0  0  0
   -5.9540    0.9844    0.0061 S   0  0  0  0  0  0  0  0  0  0  0  0
   -6.9325   -0.4000   -0.2062 C   0  0  0  0  0  0  0  0  0  0  0  0
   -6.1942   -1.5566   -0.2632 C   0  0  0  0  0  0  0  0  0  0  0  0
   -4.8297   -1.2466   -0.1270 C   0  0  0  0  0  0  0  0  0  0  0  0
   -3.7834   -2.2022   -0.1404 C   0  0  0  0  0  0  0  0  0  0  0  0
   -3.8538   -3.5531   -0.2790 C   0  0  0  0  0  0  0  0  0  0  0  0
   -2.5760   -4.0348   -0.2273 O   0  0  0  0  0  0  0  0  0  0  0  0
   -1.7439   -2.9573   -0.0557 C   0  0  0  0  0  0  0  0  0  0  0  0
   -2.4575   -1.7756    0.0043 C   0  0  0  0  0  0  0  0  0  0  0  0
   -1.9574   -0.4581    0.1727 C   0  0  0  0  0  0  0  0  0  0  0  0
    4.5699   -1.6191   -1.9869 H   0  0  0  0  0  0  0  0  0  0  0  0
    4.2501    0.6700   -2.9781 H   0  0  0  0  0  0  0  0  0  0  0  0
    7.4031   -0.0914   -2.5776 H   0  0  0  0  0  0  0  0  0  0  0  0
    8.0641    0.9866   -0.3007 H   0  0  0  0  0  0  0  0  0  0  0  0
    6.6912    1.8707    2.1583 H   0  0  0  0  0  0  0  0  0  0  0  0
    2.3907   -1.6277    0.4040 H   0  0  0  0  0  0  0  0  0  0  0  0
    1.5842    2.5545    0.7271 H   0  0  0  0  0  0  0  0  0  0  0  0
   -0.0620    4.0552    0.7700 H   0  0  0  0  0  0  0  0  0  0  0  0
   -4.4333    3.0945    0.3373 H   0  0  0  0  0  0  0  0  0  0  0  0
   -8.0066   -0.2964   -0.2789 H   0  0  0  0  0  0  0  0  0  0  0  0
   -6.6292   -2.5392   -0.3937 H   0  0  0  0  0  0  0  0  0  0  0  0
   -4.6334   -4.2886   -0.4118 H   0  0  0  0  0  0  0  0  0  0  0  0
   -0.6961   -3.2164    0.0017 H   0  0  0  0  0  0  0  0  0  0  0  0
  1  2  1  0
  2  3  2  0
  3  4  1  0
  4  5  2  0
  5  6  1  0
  6  7  1  0
  7  8  2  0
  7  9  1  0
  9 10  2  0
 10 11  1  0
 11 12  2  0
 12 13  1  0
 13 14  2  0
 13 15  1  0
 15 16  2  0
 16 17  1  0
 17 18  1  0
 18 19  2  0
 19 20  1  0
 20 21  1  0
 21 22  1  0
 22 23  1  0
 23 24  2  0
 24 25  1  0
 25 26  1  0
 26 27  2  0
 27 28  1  0
 28 29  1  0
 29 30  2  0
 30 31  1  0
  8  1  1  0
 14  9  1  0
 19 15  1  0
 31 20  2  0
  8  4  1  0
 31 12  1  0
 25 21  2  0
 30 26  1  0
  1 32  1  0
  1 33  1  0
  2 34  1  0
  3 35  1  0
  5 36  1  0
 10 37  1  0
 14 38  1  0
 16 39  1  0
 18 40  1  0
 23 41  1  0
 24 42  1  0
 27 43  1  0
 29 44  1  0
M  END
