
     RDKit          3D

 38 41  0  0  0  0  0  0  0  0999 V2000
    2.4835    2.1375   -3.2555 O   0  0  0  0  0  0  0  0  0  0  0  0
    1.6827    1.2239   -3.0758 C   0  0  0  0  0  0  0  0  0  0  0  0
    0.5240    1.0137   -4.0400 C   0  0  0  0  0  0  0  0  0  0  0  0
   -0.9517    1.9053   -3.4900 S   0  0  0  0  0  0  0  0  0  0  0  0
   -1.5375    0.8579   -2.2307 C   0  0  0  0  0  0  0  0  0  0  0  0
   -0.9570   -0.3380   -1.9129 N   0  0  0  0  0  0  0  0  0  0  0  0
   -1.7009   -0.7586   -0.9129 C   0  0  0  0  0  0  0  0  0  0  0  0
   -2.6986    0.1467   -0.6373 N   0  0  0  0  0  0  0  0  0  0  0  0
   -3.7101    0.0854    0.3549 C   0  0  0  0  0  0  0  0  0  0  0  0
   -3.7981   -1.0018    1.2359 C   0  0  0  0  0  0  0  0  0  0  0  0
   -4.8065   -1.0346    2.2036 C   0  0  0  0  0  0  0  0  0  0  0  0
   -5.7259    0.0091    2.2975 C   0  0  0  0  0  0  0  0  0  0  0  0
   -5.6422    1.0918    1.4249 C   0  0  0  0  0  0  0  0  0  0  0  0
   -4.6385    1.1331    0.4554 C   0  0  0  0  0  0  0  0  0  0  0  0
   -2.5953    1.1896   -1.4950 N   0  0  0  0  0  0  0  0  0  0  0  0
    1.7058    0.2969   -2.0581 N   0  0  0  0  0  0  0  0  0  0  0  0
    2.6098    0.1987   -1.0334 C   0  0  0  0  0  0  0  0  0  0  0  0
    2.4272   -0.6603   -0.0588 N   0  0  0  0  0  0  0  0  0  0  0  0
    3.4777   -0.5724    0.8404 C   0  0  0  0  0  0  0  0  0  0  0  0
    3.6271   -1.3333    2.0178 C   0  0  0  0  0  0  0  0  0  0  0  0
    4.7452   -1.1372    2.8356 C   0  0  0  0  0  0  0  0  0  0  0  0
    5.7117   -0.1960    2.4944 C   0  0  0  0  0  0  0  0  0  0  0  0
    5.5875    0.5706    1.3316 C   0  0  0  0  0  0  0  0  0  0  0  0
    4.4609    0.3650    0.5185 C   0  0  0  0  0  0  0  0  0  0  0  0
    4.0259    1.1352   -0.9563 S   0  0  0  0  0  0  0  0  0  0  0  0
    0.8256    1.4097   -5.0159 H   0  0  0  0  0  0  0  0  0  0  0  0
    0.3236   -0.0530   -4.1860 H   0  0  0  0  0  0  0  0  0  0  0  0
   -1.5607   -1.6810   -0.3692 H   0  0  0  0  0  0  0  0  0  0  0  0
   -3.1053   -1.8371    1.2039 H   0  0  0  0  0  0  0  0  0  0  0  0
   -4.8758   -1.8768    2.8885 H   0  0  0  0  0  0  0  0  0  0  0  0
   -6.5081   -0.0203    3.0522 H   0  0  0  0  0  0  0  0  0  0  0  0
   -6.3581    1.9071    1.4980 H   0  0  0  0  0  0  0  0  0  0  0  0
   -4.5940    1.9910   -0.2142 H   0  0  0  0  0  0  0  0  0  0  0  0
    0.8985   -0.3111   -1.9395 H   0  0  0  0  0  0  0  0  0  0  0  0
    2.8720   -2.0669    2.2810 H   0  0  0  0  0  0  0  0  0  0  0  0
    4.8573   -1.7254    3.7434 H   0  0  0  0  0  0  0  0  0  0  0  0
    6.5765   -0.0529    3.1393 H   0  0  0  0  0  0  0  0  0  0  0  0
    6.3417    1.3050    1.0651 H   0  0  0  0  0  0  0  0  0  0  0  0
  1  2  2  0
  2  3  1  0
  3  4  1  0
  4  5  1  0
  5  6  1  0
  6  7  2  0
  7  8  1  0
  8  9  1  0
  9 10  2  0
 10 11  1  0
 11 12  2  0
 12 13  1  0
 13 14  2  0
  8 15  1  0
  2 16  1  0
 16 17  1  0
 17 18  2  0
 18 19  1  0
 19 20  2  0
 20 21  1  0
 21 22  2  0
 22 23  1  0
 23 24  2  0
 24 25  1  0
 15  5  2  0
 25 17  1  0
 14  9  1  0
 24 19  1  0
  3 26  1  0
  3 27  1  0
  7 28  1  0
 10 29  1  0
 11 30  1  0
 12 31  1  0
 13 32  1  0
 14 33  1  0
 16 34  1  0
 20 35  1  0
 21 36  1  0
 22 37  1  0
 23 38  1  0
M  END
