
     RDKit          3D

 33 34  0  0  0  0  0  0  0  0999 V2000
   -0.6989   -0.3543   -0.5839 O   0  0  0  0  0  0  0  0  0  0  0  0
   -1.6045    0.0160    0.1609 C   0  0  0  0  0  0  0  0  0  0  0  0
   -1.3796    0.6381    1.3835 N   0  0  0  0  0  0  0  0  0  0  0  0
   -0.1836    0.9554    1.9895 C   0  0  0  0  0  0  0  0  0  0  0  0
   -0.2337    1.7106    3.4789 S   0  0  0  0  0  0  0  0  0  0  0  0
    0.9445    0.6170    1.3040 N   0  0  0  0  0  0  0  0  0  0  0  0
    2.3152    0.8404    1.7219 C   0  0  0  0  0  0  0  0  0  0  0  0
    3.2865    0.3267    0.6935 C   0  0  0  0  0  0  0  0  0  0  0  0
    3.7364   -1.0003    0.7403 C   0  0  0  0  0  0  0  0  0  0  0  0
    4.6191   -1.4827   -0.2273 C   0  0  0  0  0  0  0  0  0  0  0  0
    5.0531   -0.6471   -1.2548 C   0  0  0  0  0  0  0  0  0  0  0  0
    4.6013    0.6697   -1.3193 C   0  0  0  0  0  0  0  0  0  0  0  0
    3.7186    1.1540   -0.3526 C   0  0  0  0  0  0  0  0  0  0  0  0
   -3.0215   -0.2028   -0.2473 C   0  0  0  0  0  0  0  0  0  0  0  0
   -3.2730   -0.8292   -1.4781 C   0  0  0  0  0  0  0  0  0  0  0  0
   -4.5848   -1.0566   -1.9049 C   0  0  0  0  0  0  0  0  0  0  0  0
   -5.6579   -0.6610   -1.1076 C   0  0  0  0  0  0  0  0  0  0  0  0
   -5.4194   -0.0382    0.1161 C   0  0  0  0  0  0  0  0  0  0  0  0
   -4.1092    0.1862    0.5371 C   0  0  0  0  0  0  0  0  0  0  0  0
   -3.9241    0.7886    1.7217 F   0  0  0  0  0  0  0  0  0  0  0  0
   -2.1862    0.9107    1.9339 H   0  0  0  0  0  0  0  0  0  0  0  0
    0.8036    0.1587    0.4028 H   0  0  0  0  0  0  0  0  0  0  0  0
    2.4774    0.3410    2.6844 H   0  0  0  0  0  0  0  0  0  0  0  0
    2.4644    1.9140    1.8864 H   0  0  0  0  0  0  0  0  0  0  0  0
    3.3961   -1.6661    1.5305 H   0  0  0  0  0  0  0  0  0  0  0  0
    4.9638   -2.5124   -0.1820 H   0  0  0  0  0  0  0  0  0  0  0  0
    5.7380   -1.0243   -2.0095 H   0  0  0  0  0  0  0  0  0  0  0  0
    4.9321    1.3189   -2.1257 H   0  0  0  0  0  0  0  0  0  0  0  0
    3.3642    2.1803   -0.4209 H   0  0  0  0  0  0  0  0  0  0  0  0
   -2.4463   -1.1446   -2.1134 H   0  0  0  0  0  0  0  0  0  0  0  0
   -4.7664   -1.5431   -2.8611 H   0  0  0  0  0  0  0  0  0  0  0  0
   -6.6782   -0.8382   -1.4403 H   0  0  0  0  0  0  0  0  0  0  0  0
   -6.2471    0.2746    0.7462 H   0  0  0  0  0  0  0  0  0  0  0  0
  1  2  2  0
  2  3  1  0
  3  4  1  0
  4  5  2  0
  4  6  1  0
  6  7  1  0
  7  8  1  0
  8  9  2  0
  9 10  1  0
 10 11  2  0
 11 12  1  0
 12 13  2  0
  2 14  1  0
 14 15  2  0
 15 16  1  0
 16 17  2  0
 17 18  1  0
 18 19  2  0
 19 20  1  0
 13  8  1  0
 19 14  1  0
  3 21  1  0
  6 22  1  0
  7 23  1  0
  7 24  1  0
  9 25  1  0
 10 26  1  0
 11 27  1  0
 12 28  1  0
 13 29  1  0
 15 30  1  0
 16 31  1  0
 17 32  1  0
 18 33  1  0
M  END
