
     RDKit          3D

 49 52  0  0  0  0  0  0  0  0999 V2000
    2.3823   -1.9376   -0.1579 O   0  0  0  0  0  0  0  0  0  0  0  0
    1.9039   -0.9848    0.4460 C   0  0  0  0  0  0  0  0  0  0  0  0
    2.6603   -0.0615    1.1414 N   0  0  0  0  0  0  0  0  0  0  0  0
    4.0976   -0.2022    1.2423 C   0  0  0  0  0  0  0  0  0  0  0  0
    4.7420    0.8230    2.1987 C   0  0  0  0  0  0  0  0  0  0  0  0
    5.8185    1.4887    1.3217 C   0  0  0  0  0  0  0  0  0  0  0  0
    5.1266    2.4136    0.3072 C   0  0  0  0  0  0  0  0  0  0  0  0
    4.4820    1.4253   -0.6745 C   0  0  0  0  0  0  0  0  0  0  0  0
    4.8579    0.0530   -0.0832 C   0  0  0  0  0  0  0  0  0  0  0  0
    6.2710    0.3292    0.4349 C   0  0  0  0  0  0  0  0  0  0  0  0
    0.4285   -0.7912    0.4942 C   0  0  0  0  0  0  0  0  0  0  0  0
   -0.1463    0.4788    0.6255 C   0  0  0  0  0  0  0  0  0  0  0  0
   -1.5374    0.6181    0.6631 C   0  0  0  0  0  0  0  0  0  0  0  0
   -2.3708   -0.5053    0.5565 C   0  0  0  0  0  0  0  0  0  0  0  0
   -3.8782   -0.3532    0.6182 C   0  0  0  0  0  0  0  0  0  0  0  0
   -4.5792   -1.0328   -0.4804 N   0  0  0  0  0  0  0  0  0  0  0  0
   -4.3639   -0.3885   -1.7949 C   0  0  0  0  0  0  0  0  0  0  0  0
   -5.5300    0.5107   -2.2360 C   0  0  0  0  0  0  0  0  0  0  0  0
   -6.7820   -0.1829   -2.3255 O   0  0  0  0  0  0  0  0  0  0  0  0
   -6.8584   -1.3214   -1.4565 C   0  0  0  0  0  0  0  0  0  0  0  0
   -6.0233   -1.1408   -0.1814 C   0  0  0  0  0  0  0  0  0  0  0  0
   -1.7849   -1.7730    0.4192 C   0  0  0  0  0  0  0  0  0  0  0  0
   -0.3961   -1.9147    0.3786 C   0  0  0  0  0  0  0  0  0  0  0  0
    2.1896    0.5207    1.8203 H   0  0  0  0  0  0  0  0  0  0  0  0
    4.3088   -1.2177    1.6020 H   0  0  0  0  0  0  0  0  0  0  0  0
    4.0341    1.5509    2.6089 H   0  0  0  0  0  0  0  0  0  0  0  0
    5.2119    0.2981    3.0389 H   0  0  0  0  0  0  0  0  0  0  0  0
    6.6065    1.9804    1.8955 H   0  0  0  0  0  0  0  0  0  0  0  0
    4.3869    3.0715    0.7742 H   0  0  0  0  0  0  0  0  0  0  0  0
    5.8593    3.0391   -0.2150 H   0  0  0  0  0  0  0  0  0  0  0  0
    4.9239    1.5475   -1.6704 H   0  0  0  0  0  0  0  0  0  0  0  0
    3.4033    1.5799   -0.7683 H   0  0  0  0  0  0  0  0  0  0  0  0
    4.7788   -0.7636   -0.8038 H   0  0  0  0  0  0  0  0  0  0  0  0
    6.9687    0.6340   -0.3522 H   0  0  0  0  0  0  0  0  0  0  0  0
    6.6967   -0.5071    0.9995 H   0  0  0  0  0  0  0  0  0  0  0  0
    0.4720    1.3707    0.6709 H   0  0  0  0  0  0  0  0  0  0  0  0
   -1.9668    1.6126    0.7639 H   0  0  0  0  0  0  0  0  0  0  0  0
   -4.1891   -0.7836    1.5799 H   0  0  0  0  0  0  0  0  0  0  0  0
   -4.1545    0.7091    0.6466 H   0  0  0  0  0  0  0  0  0  0  0  0
   -3.4270    0.1779   -1.8335 H   0  0  0  0  0  0  0  0  0  0  0  0
   -4.2603   -1.1978   -2.5289 H   0  0  0  0  0  0  0  0  0  0  0  0
   -5.3225    0.9370   -3.2228 H   0  0  0  0  0  0  0  0  0  0  0  0
   -5.6552    1.3489   -1.5406 H   0  0  0  0  0  0  0  0  0  0  0  0
   -7.9127   -1.4654   -1.1991 H   0  0  0  0  0  0  0  0  0  0  0  0
   -6.5364   -2.2071   -2.0169 H   0  0  0  0  0  0  0  0  0  0  0  0
   -6.1856   -1.9913    0.4896 H   0  0  0  0  0  0  0  0  0  0  0  0
   -6.3764   -0.2350    0.3297 H   0  0  0  0  0  0  0  0  0  0  0  0
   -2.4149   -2.6564    0.3295 H   0  0  0  0  0  0  0  0  0  0  0  0
    0.0408   -2.9040    0.2574 H   0  0  0  0  0  0  0  0  0  0  0  0
  1  2  2  0
  2  3  1  0
  3  4  1  0
  4  5  1  0
  5  6  1  0
  6  7  1  0
  7  8  1  0
  8  9  1  0
  9 10  1  0
  2 11  1  0
 11 12  2  0
 12 13  1  0
 13 14  2  0
 14 15  1  0
 15 16  1  0
 16 17  1  0
 17 18  1  0
 18 19  1  0
 19 20  1  0
 20 21  1  0
 14 22  1  0
 22 23  2  0
  9  4  1  0
 23 11  1  0
 10  6  1  0
 21 16  1  0
  3 24  1  0
  4 25  1  0
  5 26  1  0
  5 27  1  0
  6 28  1  0
  7 29  1  0
  7 30  1  0
  8 31  1  0
  8 32  1  0
  9 33  1  0
 10 34  1  0
 10 35  1  0
 12 36  1  0
 13 37  1  0
 15 38  1  0
 15 39  1  0
 17 40  1  0
 17 41  1  0
 18 42  1  0
 18 43  1  0
 20 44  1  0
 20 45  1  0
 21 46  1  0
 21 47  1  0
 22 48  1  0
 23 49  1  0
M  END
