
     RDKit          3D

 40 46  0  0  0  0  0  0  0  0999 V2000
    4.5637   -0.9030   -1.5709 Si  0  0  0  0  0  4  0  0  0  0  0  0
    6.4534   -1.1738   -1.4127 C   0  0  0  0  0  0  0  0  0  0  0  0
    6.9333   -0.6379   -0.2689 C   0  0  0  0  0  0  0  0  0  0  0  0
    5.9509   -0.0036    0.5556 C   0  0  0  0  0  0  0  0  0  0  0  0
    6.0759    0.6404    1.7562 C   0  0  0  0  0  0  0  0  0  0  0  0
    4.5423    1.2255    2.2959 S   0  0  0  0  0  0  0  0  0  0  0  0
    3.7076    0.6072    0.9098 C   0  0  0  0  0  0  0  0  0  0  0  0
    4.6081   -0.0136    0.0927 C   0  0  0  0  0  0  0  0  0  0  0  0
    2.2658    0.7834    0.7869 C   0  0  0  0  0  0  0  0  0  0  0  0
    1.6812    2.0404    0.7304 C   0  0  0  0  0  0  0  0  0  0  0  0
    0.3510    2.2599    0.5934 N   0  0  0  0  0  0  0  0  0  0  0  0
   -0.4627    1.1932    0.5129 C   0  0  0  0  0  0  0  0  0  0  0  0
   -1.8305    1.3981    0.3746 C   0  0  0  0  0  0  0  0  0  0  0  0
   -2.7278    0.3146    0.2877 C   0  0  0  0  0  0  0  0  0  0  0  0
   -2.2118   -0.9819    0.3441 C   0  0  0  0  0  0  0  0  0  0  0  0
   -0.8428   -1.2338    0.4814 C   0  0  0  0  0  0  0  0  0  0  0  0
    0.0262   -0.1292    0.5640 C   0  0  0  0  0  0  0  0  0  0  0  0
    1.4097   -0.3148    0.7011 C   0  0  0  0  0  0  0  0  0  0  0  0
   -3.2709   -1.8665    0.2434 N   0  0  0  0  0  0  0  0  0  0  0  0
   -4.4678   -1.1932    0.1199 C   0  0  0  0  0  0  0  0  0  0  0  0
   -5.7861   -1.6655   -0.0096 C   0  0  0  0  0  0  0  0  0  0  0  0
   -6.8416   -0.7421   -0.1196 C   0  0  0  0  0  0  0  0  0  0  0  0
   -6.5085    0.6326   -0.0929 C   0  0  0  0  0  0  0  0  0  0  0  0
   -7.3787    1.6576   -0.1851 N   0  0  0  0  0  0  0  0  0  0  0  0
   -6.4707    3.0653   -0.1006 S   0  0  0  0  0  0  0  0  0  0  0  0
   -4.9265    2.4328    0.0562 N   0  0  0  0  0  0  0  0  0  0  0  0
   -5.1477    1.1281    0.0409 C   0  0  0  0  0  0  0  0  0  0  0  0
   -4.1149    0.1426    0.1490 C   0  0  0  0  0  0  0  0  0  0  0  0
    3.8367   -2.1975   -1.5325 H   0  0  0  0  0  0  0  0  0  0  0  0
    4.2526   -0.0253   -2.7256 H   0  0  0  0  0  0  0  0  0  0  0  0
    7.0039   -1.6941   -2.1798 H   0  0  0  0  0  0  0  0  0  0  0  0
    7.9796   -0.6783    0.0117 H   0  0  0  0  0  0  0  0  0  0  0  0
    6.9625    0.8089    2.3513 H   0  0  0  0  0  0  0  0  0  0  0  0
    2.2817    2.9451    0.7847 H   0  0  0  0  0  0  0  0  0  0  0  0
   -2.2051    2.4180    0.3352 H   0  0  0  0  0  0  0  0  0  0  0  0
   -0.4654   -2.2511    0.5241 H   0  0  0  0  0  0  0  0  0  0  0  0
    1.8203   -1.3206    0.7554 H   0  0  0  0  0  0  0  0  0  0  0  0
   -3.1772   -2.8721    0.2591 H   0  0  0  0  0  0  0  0  0  0  0  0
   -5.9980   -2.7319   -0.0253 H   0  0  0  0  0  0  0  0  0  0  0  0
   -7.8719   -1.0639   -0.2209 H   0  0  0  0  0  0  0  0  0  0  0  0
  1  2  1  0
  2  3  2  0
  3  4  1  0
  4  5  2  0
  5  6  1  0
  6  7  1  0
  7  8  2  0
  7  9  1  0
  9 10  2  0
 10 11  1  0
 11 12  2  0
 12 13  1  0
 13 14  2  0
 14 15  1  0
 15 16  2  0
 16 17  1  0
 17 18  2  0
 15 19  1  0
 19 20  1  0
 20 21  1  0
 21 22  2  0
 22 23  1  0
 23 24  2  0
 24 25  1  0
 25 26  1  0
 26 27  2  0
 27 28  1  0
  8  1  1  0
 18  9  1  0
 28 20  2  0
  8  4  1  0
 17 12  1  0
 27 23  1  0
 28 14  1  0
  1 29  1  0
  1 30  1  0
  2 31  1  0
  3 32  1  0
  5 33  1  0
 10 34  1  0
 13 35  1  0
 16 36  1  0
 18 37  1  0
 19 38  1  0
 21 39  1  0
 22 40  1  0
M  END
