
     RDKit          3D

 32 34  0  0  0  0  0  0  0  0999 V2000
   -1.4940   -0.8081    1.9205 O   0  0  0  0  0  0  0  0  0  0  0  0
   -0.9660   -0.3222    0.9278 C   0  0  0  0  0  0  0  0  0  0  0  0
   -1.6024    0.1742   -0.1955 N   0  0  0  0  0  0  0  0  0  0  0  0
   -2.9858    0.1581   -0.4732 C   0  0  0  0  0  0  0  0  0  0  0  0
   -3.4098    0.7938   -1.6482 C   0  0  0  0  0  0  0  0  0  0  0  0
   -4.7624    0.8185   -1.9988 C   0  0  0  0  0  0  0  0  0  0  0  0
   -5.7048    0.2052   -1.1785 C   0  0  0  0  0  0  0  0  0  0  0  0
   -5.2929   -0.4322   -0.0107 C   0  0  0  0  0  0  0  0  0  0  0  0
   -3.9389   -0.4568    0.3401 C   0  0  0  0  0  0  0  0  0  0  0  0
    0.5195   -0.1993    0.9131 C   0  0  0  0  0  0  0  0  0  0  0  0
    1.1810    0.0496    2.1242 C   0  0  0  0  0  0  0  0  0  0  0  0
    2.5724    0.1657    2.1548 C   0  0  0  0  0  0  0  0  0  0  0  0
    3.3048    0.0197    0.9790 C   0  0  0  0  0  0  0  0  0  0  0  0
    2.6470   -0.2194   -0.2327 C   0  0  0  0  0  0  0  0  0  0  0  0
    1.2590   -0.3498   -0.2669 C   0  0  0  0  0  0  0  0  0  0  0  0
    3.3032   -0.3508   -1.4303 O   0  0  0  0  0  0  0  0  0  0  0  0
    4.6549    0.1169   -1.3418 C   0  0  0  0  0  0  0  0  0  0  0  0
    5.3219   -0.3982   -0.0773 C   0  0  0  0  0  0  0  0  0  0  0  0
    4.6678    0.1233    1.0852 O   0  0  0  0  0  0  0  0  0  0  0  0
   -1.0302    0.6613   -0.8721 H   0  0  0  0  0  0  0  0  0  0  0  0
   -2.6957    1.2806   -2.3069 H   0  0  0  0  0  0  0  0  0  0  0  0
   -5.0788    1.3164   -2.9116 H   0  0  0  0  0  0  0  0  0  0  0  0
   -6.7576    0.2220   -1.4471 H   0  0  0  0  0  0  0  0  0  0  0  0
   -6.0234   -0.9148    0.6337 H   0  0  0  0  0  0  0  0  0  0  0  0
   -3.6619   -0.9693    1.2559 H   0  0  0  0  0  0  0  0  0  0  0  0
    0.6117    0.1500    3.0467 H   0  0  0  0  0  0  0  0  0  0  0  0
    3.0827    0.3537    3.0956 H   0  0  0  0  0  0  0  0  0  0  0  0
    0.7769   -0.5871   -1.2104 H   0  0  0  0  0  0  0  0  0  0  0  0
    4.6457    1.2135   -1.3724 H   0  0  0  0  0  0  0  0  0  0  0  0
    5.1890   -0.2448   -2.2260 H   0  0  0  0  0  0  0  0  0  0  0  0
    6.3673   -0.0760   -0.0423 H   0  0  0  0  0  0  0  0  0  0  0  0
    5.2998   -1.4940   -0.0286 H   0  0  0  0  0  0  0  0  0  0  0  0
  1  2  2  0
  2  3  1  0
  3  4  1  0
  4  5  2  0
  5  6  1  0
  6  7  2  0
  7  8  1  0
  8  9  2  0
  2 10  1  0
 10 11  2  0
 11 12  1  0
 12 13  2  0
 13 14  1  0
 14 15  2  0
 14 16  1  0
 16 17  1  0
 17 18  1  0
 18 19  1  0
  9  4  1  0
 15 10  1  0
 19 13  1  0
  3 20  1  0
  5 21  1  0
  6 22  1  0
  7 23  1  0
  8 24  1  0
  9 25  1  0
 11 26  1  0
 12 27  1  0
 15 28  1  0
 17 29  1  0
 17 30  1  0
 18 31  1  0
 18 32  1  0
M  END
