
     RDKit          3D

 40 42  0  0  0  0  0  0  0  0999 V2000
   -2.6244   -0.1725   -1.2118 O   0  0  0  0  0  0  0  0  0  0  0  0
   -2.8724    0.7103   -0.4019 C   0  0  0  0  0  0  0  0  0  0  0  0
   -4.0321    0.7827    0.3600 N   0  0  0  0  0  0  0  0  0  0  0  0
   -5.1547   -0.0717    0.3094 C   0  0  0  0  0  0  0  0  0  0  0  0
   -5.3205   -1.0949   -0.6256 C   0  0  0  0  0  0  0  0  0  0  0  0
   -6.4703   -1.8920   -0.6091 C   0  0  0  0  0  0  0  0  0  0  0  0
   -7.4650   -1.6714    0.3402 C   0  0  0  0  0  0  0  0  0  0  0  0
   -7.3128   -0.6510    1.2741 C   0  0  0  0  0  0  0  0  0  0  0  0
   -6.1644    0.1453    1.2574 C   0  0  0  0  0  0  0  0  0  0  0  0
   -2.0429    1.7742   -0.1106 N   0  0  0  0  0  0  0  0  0  0  0  0
   -0.7941    2.0121   -0.6277 C   0  0  0  0  0  0  0  0  0  0  0  0
   -0.1361    3.1200   -0.3673 N   0  0  0  0  0  0  0  0  0  0  0  0
    1.1020    3.1488   -0.9762 N   0  0  0  0  0  0  0  0  0  0  0  0
    1.3420    2.0489   -1.6620 C   0  0  0  0  0  0  0  0  0  0  0  0
    2.5826    1.7693   -2.4435 C   0  0  0  0  0  0  0  0  0  0  0  0
    4.0689    1.6042   -1.4018 S   0  0  0  0  0  0  0  0  0  0  0  0
    3.5964    0.1366   -0.4328 C   0  0  0  0  0  0  0  0  0  0  0  0
    4.7718   -0.4139    0.3371 C   0  0  0  0  0  0  0  0  0  0  0  0
    5.0391    0.0938    1.6227 C   0  0  0  0  0  0  0  0  0  0  0  0
    6.1214   -0.3749    2.3697 C   0  0  0  0  0  0  0  0  0  0  0  0
    6.9589   -1.3540    1.8435 C   0  0  0  0  0  0  0  0  0  0  0  0
    6.7160   -1.8616    0.5678 C   0  0  0  0  0  0  0  0  0  0  0  0
    5.6327   -1.3937   -0.1840 C   0  0  0  0  0  0  0  0  0  0  0  0
    5.4069   -2.0678   -1.7597 Cl  0  0  0  0  0  0  0  0  0  0  0  0
    0.0522    0.9124   -1.6133 S   0  0  0  0  0  0  0  0  0  0  0  0
   -4.0447    1.4718    1.0962 H   0  0  0  0  0  0  0  0  0  0  0  0
   -4.5767   -1.3001   -1.3888 H   0  0  0  0  0  0  0  0  0  0  0  0
   -6.5846   -2.6859   -1.3432 H   0  0  0  0  0  0  0  0  0  0  0  0
   -8.3562   -2.2933    0.3494 H   0  0  0  0  0  0  0  0  0  0  0  0
   -8.0874   -0.4741    2.0158 H   0  0  0  0  0  0  0  0  0  0  0  0
   -6.0739    0.9346    1.9988 H   0  0  0  0  0  0  0  0  0  0  0  0
   -2.3972    2.5433    0.4339 H   0  0  0  0  0  0  0  0  0  0  0  0
    2.4879    0.8700   -3.0612 H   0  0  0  0  0  0  0  0  0  0  0  0
    2.7572    2.6046   -3.1307 H   0  0  0  0  0  0  0  0  0  0  0  0
    2.8064    0.4168    0.2733 H   0  0  0  0  0  0  0  0  0  0  0  0
    3.1672   -0.6281   -1.0874 H   0  0  0  0  0  0  0  0  0  0  0  0
    4.4039    0.8704    2.0466 H   0  0  0  0  0  0  0  0  0  0  0  0
    6.3135    0.0310    3.3601 H   0  0  0  0  0  0  0  0  0  0  0  0
    7.8044   -1.7170    2.4222 H   0  0  0  0  0  0  0  0  0  0  0  0
    7.3793   -2.6207    0.1606 H   0  0  0  0  0  0  0  0  0  0  0  0
  1  2  2  0
  2  3  1  0
  3  4  1  0
  4  5  2  0
  5  6  1  0
  6  7  2  0
  7  8  1  0
  8  9  2  0
  2 10  1  0
 10 11  1  0
 11 12  2  0
 12 13  1  0
 13 14  2  0
 14 15  1  0
 15 16  1  0
 16 17  1  0
 17 18  1  0
 18 19  2  0
 19 20  1  0
 20 21  2  0
 21 22  1  0
 22 23  2  0
 23 24  1  0
 14 25  1  0
  9  4  1  0
 25 11  1  0
 23 18  1  0
  3 26  1  0
  5 27  1  0
  6 28  1  0
  7 29  1  0
  8 30  1  0
  9 31  1  0
 10 32  1  0
 15 33  1  0
 15 34  1  0
 17 35  1  0
 17 36  1  0
 19 37  1  0
 20 38  1  0
 21 39  1  0
 22 40  1  0
M  END
