
     RDKit          3D

 42 45  0  0  0  0  0  0  0  0999 V2000
    1.6750    1.5082   -2.6328 O   0  0  0  0  0  0  0  0  0  0  0  0
    1.4414    1.0162   -1.5348 C   0  0  0  0  0  0  0  0  0  0  0  0
    0.2922    0.3609   -1.1564 N   0  0  0  0  0  0  0  0  0  0  0  0
   -0.8334    0.0348   -1.9417 C   0  0  0  0  0  0  0  0  0  0  0  0
   -0.9214    0.2634   -3.3147 C   0  0  0  0  0  0  0  0  0  0  0  0
   -2.0687   -0.1177   -4.0130 C   0  0  0  0  0  0  0  0  0  0  0  0
   -3.1280   -0.7267   -3.3437 C   0  0  0  0  0  0  0  0  0  0  0  0
   -3.0478   -0.9584   -1.9692 C   0  0  0  0  0  0  0  0  0  0  0  0
   -1.9042   -0.5848   -1.2490 C   0  0  0  0  0  0  0  0  0  0  0  0
   -1.7849   -0.7700    0.1544 N   0  0  0  0  0  0  0  0  0  0  0  0
   -2.5152    0.2909    0.8944 C   0  0  0  0  0  0  0  0  0  0  0  0
   -2.6224   -0.1002    2.3760 C   0  0  0  0  0  0  0  0  0  0  0  0
   -3.3703   -1.3072    2.5967 O   0  0  0  0  0  0  0  0  0  0  0  0
   -3.3775   -2.1900    1.4643 C   0  0  0  0  0  0  0  0  0  0  0  0
   -2.0823   -2.1413    0.6385 C   0  0  0  0  0  0  0  0  0  0  0  0
    2.4689    1.1577   -0.4618 C   0  0  0  0  0  0  0  0  0  0  0  0
    3.3162    2.2890   -0.4954 C   0  0  0  0  0  0  0  0  0  0  0  0
    4.2991    2.4776    0.4817 C   0  0  0  0  0  0  0  0  0  0  0  0
    4.4133    1.5193    1.4645 C   0  0  0  0  0  0  0  0  0  0  0  0
    3.6007    0.4095    1.4930 C   0  0  0  0  0  0  0  0  0  0  0  0
    2.6222    0.1928    0.5452 C   0  0  0  0  0  0  0  0  0  0  0  0
    3.8863   -0.4146    2.5370 O   0  0  0  0  0  0  0  0  0  0  0  0
    4.9758    0.3000    3.1584 C   0  0  0  0  0  0  0  0  0  0  0  0
    5.3080    1.5332    2.4878 O   0  0  0  0  0  0  0  0  0  0  0  0
    0.1591    0.0879   -0.1872 H   0  0  0  0  0  0  0  0  0  0  0  0
   -0.1106    0.7285   -3.8658 H   0  0  0  0  0  0  0  0  0  0  0  0
   -2.1310    0.0625   -5.0833 H   0  0  0  0  0  0  0  0  0  0  0  0
   -4.0198   -1.0178   -3.8929 H   0  0  0  0  0  0  0  0  0  0  0  0
   -3.8933   -1.4195   -1.4697 H   0  0  0  0  0  0  0  0  0  0  0  0
   -1.9743    1.2399    0.8047 H   0  0  0  0  0  0  0  0  0  0  0  0
   -3.5258    0.4279    0.4882 H   0  0  0  0  0  0  0  0  0  0  0  0
   -1.6248   -0.2462    2.8064 H   0  0  0  0  0  0  0  0  0  0  0  0
   -3.1124    0.6970    2.9437 H   0  0  0  0  0  0  0  0  0  0  0  0
   -4.2451   -1.9323    0.8472 H   0  0  0  0  0  0  0  0  0  0  0  0
   -3.5409   -3.2041    1.8431 H   0  0  0  0  0  0  0  0  0  0  0  0
   -1.2460   -2.4321    1.2859 H   0  0  0  0  0  0  0  0  0  0  0  0
   -2.1185   -2.8734   -0.1771 H   0  0  0  0  0  0  0  0  0  0  0  0
    3.2037    3.0248   -1.2906 H   0  0  0  0  0  0  0  0  0  0  0  0
    4.9508    3.3439    0.4635 H   0  0  0  0  0  0  0  0  0  0  0  0
    2.0252   -0.7108    0.5826 H   0  0  0  0  0  0  0  0  0  0  0  0
    4.6995    0.5275    4.1943 H   0  0  0  0  0  0  0  0  0  0  0  0
    5.8611   -0.3463    3.1640 H   0  0  0  0  0  0  0  0  0  0  0  0
  1  2  2  0
  2  3  1  0
  3  4  1  0
  4  5  2  0
  5  6  1  0
  6  7  2  0
  7  8  1  0
  8  9  2  0
  9 10  1  0
 10 11  1  0
 11 12  1  0
 12 13  1  0
 13 14  1  0
 14 15  1  0
  2 16  1  0
 16 17  2  0
 17 18  1  0
 18 19  2  0
 19 20  1  0
 20 21  2  0
 20 22  1  0
 22 23  1  0
 23 24  1  0
  9  4  1  0
 15 10  1  0
 21 16  1  0
 24 19  1  0
  3 25  1  0
  5 26  1  0
  6 27  1  0
  7 28  1  0
  8 29  1  0
 11 30  1  0
 11 31  1  0
 12 32  1  0
 12 33  1  0
 14 34  1  0
 14 35  1  0
 15 36  1  0
 15 37  1  0
 17 38  1  0
 18 39  1  0
 21 40  1  0
 23 41  1  0
 23 42  1  0
M  END
