
     RDKit          3D

 31 33  0  0  0  0  0  0  0  0999 V2000
   -1.5731   -2.2945   -0.9626 O   0  0  0  0  0  0  0  0  0  0  0  0
   -0.8784   -1.3373   -0.6329 C   0  0  0  0  0  0  0  0  0  0  0  0
   -1.3904   -0.1199   -0.2433 N   0  0  0  0  0  0  0  0  0  0  0  0
   -2.7230    0.2625   -0.1005 C   0  0  0  0  0  0  0  0  0  0  0  0
   -3.8121   -0.5766   -0.2861 C   0  0  0  0  0  0  0  0  0  0  0  0
   -5.0952   -0.0608   -0.1052 C   0  0  0  0  0  0  0  0  0  0  0  0
   -5.2528    1.2701    0.2554 C   0  0  0  0  0  0  0  0  0  0  0  0
   -4.1126    2.0339    0.4224 C   0  0  0  0  0  0  0  0  0  0  0  0
   -2.8574    1.5599    0.2547 N   0  0  0  0  0  0  0  0  0  0  0  0
    0.5716   -1.3999   -0.6426 C   0  0  0  0  0  0  0  0  0  0  0  0
    1.1304   -2.4422   -1.3368 O   0  0  0  0  0  0  0  0  0  0  0  0
    2.5134   -2.3712   -1.2812 N   0  0  0  0  0  0  0  0  0  0  0  0
    2.7758   -1.2979   -0.5392 C   0  0  0  0  0  0  0  0  0  0  0  0
    1.5973   -0.6491   -0.0977 C   0  0  0  0  0  0  0  0  0  0  0  0
    1.6265    0.5631    0.7629 C   0  0  0  0  0  0  0  0  0  0  0  0
    3.0128    0.7624    1.4048 C   0  0  0  0  0  0  0  0  0  0  0  0
    4.1555    0.5511    0.3962 C   0  0  0  0  0  0  0  0  0  0  0  0
    4.1551   -0.8743   -0.1841 C   0  0  0  0  0  0  0  0  0  0  0  0
   -0.7694    0.6548   -0.0768 H   0  0  0  0  0  0  0  0  0  0  0  0
   -3.7039   -1.6176   -0.5654 H   0  0  0  0  0  0  0  0  0  0  0  0
   -5.9626   -0.6998   -0.2470 H   0  0  0  0  0  0  0  0  0  0  0  0
   -6.2375    1.6992    0.4022 H   0  0  0  0  0  0  0  0  0  0  0  0
   -4.1786    3.0809    0.7046 H   0  0  0  0  0  0  0  0  0  0  0  0
    0.8720    0.4956    1.5543 H   0  0  0  0  0  0  0  0  0  0  0  0
    1.3883    1.4397    0.1485 H   0  0  0  0  0  0  0  0  0  0  0  0
    3.1360    0.0550    2.2350 H   0  0  0  0  0  0  0  0  0  0  0  0
    3.0737    1.7698    1.8320 H   0  0  0  0  0  0  0  0  0  0  0  0
    5.1204    0.7491    0.8764 H   0  0  0  0  0  0  0  0  0  0  0  0
    4.0486    1.2781   -0.4193 H   0  0  0  0  0  0  0  0  0  0  0  0
    4.8124   -0.9149   -1.0597 H   0  0  0  0  0  0  0  0  0  0  0  0
    4.5573   -1.5691    0.5631 H   0  0  0  0  0  0  0  0  0  0  0  0
  1  2  2  0
  2  3  1  0
  3  4  1  0
  4  5  2  0
  5  6  1  0
  6  7  2  0
  7  8  1  0
  8  9  2  0
  2 10  1  0
 10 11  1  0
 11 12  1  0
 12 13  2  0
 13 14  1  0
 14 15  1  0
 15 16  1  0
 16 17  1  0
 17 18  1  0
  9  4  1  0
 14 10  2  0
 18 13  1  0
  3 19  1  0
  5 20  1  0
  6 21  1  0
  7 22  1  0
  8 23  1  0
 15 24  1  0
 15 25  1  0
 16 26  1  0
 16 27  1  0
 17 28  1  0
 17 29  1  0
 18 30  1  0
 18 31  1  0
M  END
