
     RDKit          3D

 35 37  0  0  0  0  0  0  0  0999 V2000
   -2.3660    1.2283    2.3731 O   0  0  0  0  0  0  0  0  0  0  0  0
   -2.6528    0.5315    1.4057 C   0  0  0  0  0  0  0  0  0  0  0  0
   -1.8618    0.3023    0.3052 N   0  0  0  0  0  0  0  0  0  0  0  0
   -0.6257    0.8583    0.0855 C   0  0  0  0  0  0  0  0  0  0  0  0
    0.0976    1.7929    0.8562 C   0  0  0  0  0  0  0  0  0  0  0  0
    1.2689    2.0012    0.1673 C   0  0  0  0  0  0  0  0  0  0  0  0
    1.1979    1.2010   -0.9361 N   0  0  0  0  0  0  0  0  0  0  0  0
    2.1936    1.0892   -1.9938 C   0  0  0  0  0  0  0  0  0  0  0  0
    3.3507    0.2108   -1.5822 C   0  0  0  0  0  0  0  0  0  0  0  0
    4.6223    0.7630   -1.3560 C   0  0  0  0  0  0  0  0  0  0  0  0
    5.6885   -0.0545   -0.9765 C   0  0  0  0  0  0  0  0  0  0  0  0
    5.4865   -1.4207   -0.8225 C   0  0  0  0  0  0  0  0  0  0  0  0
    6.5118   -2.2019   -0.4585 F   0  0  0  0  0  0  0  0  0  0  0  0
    4.2373   -1.9876   -1.0405 C   0  0  0  0  0  0  0  0  0  0  0  0
    3.1695   -1.1738   -1.4207 C   0  0  0  0  0  0  0  0  0  0  0  0
    0.0418    0.5076   -1.0176 N   0  0  0  0  0  0  0  0  0  0  0  0
   -3.9641   -0.1735    1.4043 C   0  0  0  0  0  0  0  0  0  0  0  0
   -4.5200   -0.5359    2.6322 C   0  0  0  0  0  0  0  0  0  0  0  0
   -5.7389   -1.1866    2.6276 C   0  0  0  0  0  0  0  0  0  0  0  0
   -6.4229   -1.4838    1.5019 N   0  0  0  0  0  0  0  0  0  0  0  0
   -5.8738   -1.1024    0.3294 C   0  0  0  0  0  0  0  0  0  0  0  0
   -4.6585   -0.4489    0.2252 C   0  0  0  0  0  0  0  0  0  0  0  0
   -2.1179   -0.3645   -0.4065 H   0  0  0  0  0  0  0  0  0  0  0  0
   -0.1915    2.2549    1.7897 H   0  0  0  0  0  0  0  0  0  0  0  0
    2.1262    2.6266    0.3719 H   0  0  0  0  0  0  0  0  0  0  0  0
    1.7055    0.6847   -2.8882 H   0  0  0  0  0  0  0  0  0  0  0  0
    2.5246    2.1066   -2.2322 H   0  0  0  0  0  0  0  0  0  0  0  0
    4.7930    1.8313   -1.4714 H   0  0  0  0  0  0  0  0  0  0  0  0
    6.6741    0.3642   -0.7986 H   0  0  0  0  0  0  0  0  0  0  0  0
    4.1013   -3.0565   -0.9104 H   0  0  0  0  0  0  0  0  0  0  0  0
    2.1898   -1.6220   -1.5829 H   0  0  0  0  0  0  0  0  0  0  0  0
   -4.0147   -0.3176    3.5676 H   0  0  0  0  0  0  0  0  0  0  0  0
   -6.2138   -1.4946    3.5550 H   0  0  0  0  0  0  0  0  0  0  0  0
   -6.4619   -1.3391   -0.5534 H   0  0  0  0  0  0  0  0  0  0  0  0
   -4.2964   -0.1457   -0.7498 H   0  0  0  0  0  0  0  0  0  0  0  0
  1  2  2  0
  2  3  1  0
  3  4  1  0
  4  5  1  0
  5  6  2  0
  6  7  1  0
  7  8  1  0
  8  9  1  0
  9 10  2  0
 10 11  1  0
 11 12  2  0
 12 13  1  0
 12 14  1  0
 14 15  2  0
  7 16  1  0
  2 17  1  0
 17 18  2  0
 18 19  1  0
 19 20  2  0
 20 21  1  0
 21 22  2  0
 16  4  2  0
 22 17  1  0
 15  9  1  0
  3 23  1  0
  5 24  1  0
  6 25  1  0
  8 26  1  0
  8 27  1  0
 10 28  1  0
 11 29  1  0
 14 30  1  0
 15 31  1  0
 18 32  1  0
 19 33  1  0
 21 34  1  0
 22 35  1  0
M  END
