
     RDKit          3D

 37 40  0  0  0  0  0  0  0  0999 V2000
   -1.5089   -0.7266   -1.5895 O   0  0  0  0  0  0  0  0  0  0  0  0
   -1.1892    0.2750   -0.9557 C   0  0  0  0  0  0  0  0  0  0  0  0
    0.0854    0.5712   -0.5084 N   0  0  0  0  0  0  0  0  0  0  0  0
    1.2018   -0.2194   -0.6032 C   0  0  0  0  0  0  0  0  0  0  0  0
    2.3640    0.2225   -0.1838 N   0  0  0  0  0  0  0  0  0  0  0  0
    3.3368   -0.7556   -0.3577 C   0  0  0  0  0  0  0  0  0  0  0  0
    4.7238   -0.5100    0.0296 C   0  0  0  0  0  0  0  0  0  0  0  0
    5.6514   -1.5428    0.1895 C   0  0  0  0  0  0  0  0  0  0  0  0
    6.9474   -1.2197    0.5618 C   0  0  0  0  0  0  0  0  0  0  0  0
    7.3750    0.0400    0.7828 N   0  0  0  0  0  0  0  0  0  0  0  0
    6.4647    1.0231    0.6301 C   0  0  0  0  0  0  0  0  0  0  0  0
    5.1482    0.8016    0.2624 C   0  0  0  0  0  0  0  0  0  0  0  0
    2.8707   -1.9257   -0.9264 C   0  0  0  0  0  0  0  0  0  0  0  0
    1.1872   -1.8005   -1.2251 S   0  0  0  0  0  0  0  0  0  0  0  0
   -2.2101    1.3952   -0.6351 C   0  0  0  0  0  0  0  0  0  0  0  0
   -2.3732    1.6258    0.8658 C   0  0  0  0  0  0  0  0  0  0  0  0
   -2.9793    0.5053    1.5154 O   0  0  0  0  0  0  0  0  0  0  0  0
   -4.0631    0.0498    0.8110 C   0  0  0  0  0  0  0  0  0  0  0  0
   -4.9319   -0.8083    1.4826 C   0  0  0  0  0  0  0  0  0  0  0  0
   -6.0672   -1.2956    0.8332 C   0  0  0  0  0  0  0  0  0  0  0  0
   -6.3290   -0.9275   -0.4875 C   0  0  0  0  0  0  0  0  0  0  0  0
   -5.4509   -0.0792   -1.1640 C   0  0  0  0  0  0  0  0  0  0  0  0
   -4.3117    0.3991   -0.5193 C   0  0  0  0  0  0  0  0  0  0  0  0
   -3.4837    1.2082   -1.2534 O   0  0  0  0  0  0  0  0  0  0  0  0
    0.2910    1.4688   -0.0951 H   0  0  0  0  0  0  0  0  0  0  0  0
    5.3921   -2.5848    0.0452 H   0  0  0  0  0  0  0  0  0  0  0  0
    7.6986   -1.9927    0.6989 H   0  0  0  0  0  0  0  0  0  0  0  0
    6.8315    2.0284    0.8169 H   0  0  0  0  0  0  0  0  0  0  0  0
    4.4693    1.6417    0.1578 H   0  0  0  0  0  0  0  0  0  0  0  0
    3.4028   -2.8286   -1.1860 H   0  0  0  0  0  0  0  0  0  0  0  0
   -1.7985    2.3107   -1.0793 H   0  0  0  0  0  0  0  0  0  0  0  0
   -3.0015    2.5064    1.0543 H   0  0  0  0  0  0  0  0  0  0  0  0
   -1.4114    1.8043    1.3565 H   0  0  0  0  0  0  0  0  0  0  0  0
   -4.7290   -1.0920    2.5112 H   0  0  0  0  0  0  0  0  0  0  0  0
   -6.7468   -1.9634    1.3563 H   0  0  0  0  0  0  0  0  0  0  0  0
   -7.2116   -1.3094   -0.9942 H   0  0  0  0  0  0  0  0  0  0  0  0
   -5.6446    0.1937   -2.1975 H   0  0  0  0  0  0  0  0  0  0  0  0
  1  2  2  0
  2  3  1  0
  3  4  1  0
  4  5  2  0
  5  6  1  0
  6  7  1  0
  7  8  2  0
  8  9  1  0
  9 10  2  0
 10 11  1  0
 11 12  2  0
  6 13  2  0
 13 14  1  0
  2 15  1  0
 15 16  1  0
 16 17  1  0
 17 18  1  0
 18 19  2  0
 19 20  1  0
 20 21  2  0
 21 22  1  0
 22 23  2  0
 23 24  1  0
 14  4  1  0
 24 15  1  0
 12  7  1  0
 23 18  1  0
  3 25  1  0
  8 26  1  0
  9 27  1  0
 11 28  1  0
 12 29  1  0
 13 30  1  0
 15 31  1  0
 16 32  1  0
 16 33  1  0
 19 34  1  0
 20 35  1  0
 21 36  1  0
 22 37  1  0
M  END
