
     RDKit          3D

 36 41  0  0  0  0  0  0  0  0999 V2000
   -4.3212   -0.3864    1.5024 Si  0  0  0  0  0  4  0  0  0  0  0  0
   -6.1988   -0.2817    1.1449 C   0  0  0  0  0  0  0  0  0  0  0  0
   -6.4368   -0.0432   -0.1633 C   0  0  0  0  0  0  0  0  0  0  0  0
   -5.2651    0.0751   -0.9761 C   0  0  0  0  0  0  0  0  0  0  0  0
   -5.1330    0.3163   -2.3149 C   0  0  0  0  0  0  0  0  0  0  0  0
   -3.4683    0.3578   -2.7640 S   0  0  0  0  0  0  0  0  0  0  0  0
   -2.9075    0.0553   -1.1416 C   0  0  0  0  0  0  0  0  0  0  0  0
   -1.5269   -0.0477   -0.8555 C   0  0  0  0  0  0  0  0  0  0  0  0
   -0.9559   -1.1291   -0.2856 C   0  0  0  0  0  0  0  0  0  0  0  0
    0.4891   -0.9714   -0.0614 C   0  0  0  0  0  0  0  0  0  0  0  0
    1.3437   -1.8991    0.4959 C   0  0  0  0  0  0  0  0  0  0  0  0
    2.6663   -1.7050    0.6871 N   0  0  0  0  0  0  0  0  0  0  0  0
    3.1584   -0.4977    0.2875 C   0  0  0  0  0  0  0  0  0  0  0  0
    4.4791   -0.0670    0.3787 C   0  0  0  0  0  0  0  0  0  0  0  0
    6.0819   -0.7905    1.0046 Si  0  0  0  0  0  4  0  0  0  0  0  0
    6.9310    0.8673    0.4919 C   0  0  0  0  0  0  0  0  0  0  0  0
    6.0520    1.7391   -0.0482 C   0  0  0  0  0  0  0  0  0  0  0  0
    4.7364    1.1988   -0.0928 C   0  0  0  0  0  0  0  0  0  0  0  0
    3.3244    1.9200   -0.6796 S   0  0  0  0  0  0  0  0  0  0  0  0
    2.3713    0.5175   -0.2936 C   0  0  0  0  0  0  0  0  0  0  0  0
    1.0115    0.2673   -0.4676 C   0  0  0  0  0  0  0  0  0  0  0  0
   -0.2928    1.3519   -1.1860 Si  0  0  0  0  0  4  0  0  0  0  0  0
   -4.0061   -0.0725   -0.3351 C   0  0  0  0  0  0  0  0  0  0  0  0
   -3.9416   -1.7498    1.9524 H   0  0  0  0  0  0  0  0  0  0  0  0
   -3.8914    0.7223    2.3908 H   0  0  0  0  0  0  0  0  0  0  0  0
   -6.9210   -0.4059    1.9355 H   0  0  0  0  0  0  0  0  0  0  0  0
   -7.4343    0.0532   -0.5765 H   0  0  0  0  0  0  0  0  0  0  0  0
   -5.9018    0.4697   -3.0590 H   0  0  0  0  0  0  0  0  0  0  0  0
   -1.4722   -2.0404   -0.0137 H   0  0  0  0  0  0  0  0  0  0  0  0
    0.9789   -2.8695    0.8216 H   0  0  0  0  0  0  0  0  0  0  0  0
    6.6448   -1.8993    0.1934 H   0  0  0  0  0  0  0  0  0  0  0  0
    6.1785   -0.9538    2.4774 H   0  0  0  0  0  0  0  0  0  0  0  0
    7.9885    1.0051    0.6502 H   0  0  0  0  0  0  0  0  0  0  0  0
    6.3042    2.7291   -0.4068 H   0  0  0  0  0  0  0  0  0  0  0  0
   -0.0932    1.6146   -2.6348 H   0  0  0  0  0  0  0  0  0  0  0  0
   -0.5723    2.5496   -0.3514 H   0  0  0  0  0  0  0  0  0  0  0  0
  1  2  1  0
  2  3  2  0
  3  4  1  0
  4  5  2  0
  5  6  1  0
  6  7  1  0
  7  8  1  0
  8  9  2  0
  9 10  1  0
 10 11  2  0
 11 12  1  0
 12 13  2  0
 13 14  1  0
 14 15  1  0
 15 16  1  0
 16 17  2  0
 17 18  1  0
 18 19  1  0
 19 20  1  0
 20 21  2  0
 21 22  1  0
  7 23  2  0
 23  1  1  0
 23  4  1  0
 22  8  1  0
 21 10  1  0
 20 13  1  0
 18 14  2  0
  1 24  1  0
  1 25  1  0
  2 26  1  0
  3 27  1  0
  5 28  1  0
  9 29  1  0
 11 30  1  0
 15 31  1  0
 15 32  1  0
 16 33  1  0
 17 34  1  0
 22 35  1  0
 22 36  1  0
M  END
