
     RDKit          3D

 37 39  0  0  0  0  0  0  0  0999 V2000
    0.2295   -0.0316    1.3211 O   0  0  0  0  0  0  0  0  0  0  0  0
    0.3377   -0.2803    0.1276 C   0  0  0  0  0  0  0  0  0  0  0  0
    1.3161   -1.0929   -0.3969 N   0  0  0  0  0  0  0  0  0  0  0  0
    2.3501   -1.6370    0.4554 C   0  0  0  0  0  0  0  0  0  0  0  0
    3.5756   -0.7705    0.4551 C   0  0  0  0  0  0  0  0  0  0  0  0
    4.6536   -1.0232   -0.3988 C   0  0  0  0  0  0  0  0  0  0  0  0
    5.7642   -0.1843   -0.3753 C   0  0  0  0  0  0  0  0  0  0  0  0
    5.7582    0.8880    0.5006 C   0  0  0  0  0  0  0  0  0  0  0  0
    4.7342    1.1702    1.3325 N   0  0  0  0  0  0  0  0  0  0  0  0
    3.6660    0.3401    1.2894 C   0  0  0  0  0  0  0  0  0  0  0  0
   -0.4804    0.2119   -0.8652 N   0  0  0  0  0  0  0  0  0  0  0  0
   -1.6443    1.0111   -0.5685 C   0  0  0  0  0  0  0  0  0  0  0  0
   -2.9008    0.1853   -0.3234 C   0  0  0  0  0  0  0  0  0  0  0  0
   -3.2092   -0.3016    0.9591 C   0  0  0  0  0  0  0  0  0  0  0  0
   -4.3497   -1.0736    1.1937 C   0  0  0  0  0  0  0  0  0  0  0  0
   -5.2089   -1.3812    0.1431 C   0  0  0  0  0  0  0  0  0  0  0  0
   -4.9249   -0.9207   -1.1394 C   0  0  0  0  0  0  0  0  0  0  0  0
   -3.7816   -0.1498   -1.3678 C   0  0  0  0  0  0  0  0  0  0  0  0
   -1.4881    2.3347    0.1568 C   0  0  0  0  0  0  0  0  0  0  0  0
   -1.7891    2.3340   -1.3063 C   0  0  0  0  0  0  0  0  0  0  0  0
    1.5824   -0.8831   -1.3470 H   0  0  0  0  0  0  0  0  0  0  0  0
    2.5940   -2.6314    0.0648 H   0  0  0  0  0  0  0  0  0  0  0  0
    1.9786   -1.7773    1.4770 H   0  0  0  0  0  0  0  0  0  0  0  0
    4.6369   -1.8711   -1.0785 H   0  0  0  0  0  0  0  0  0  0  0  0
    6.6150   -0.3621   -1.0233 H   0  0  0  0  0  0  0  0  0  0  0  0
    6.6013    1.5703    0.5576 H   0  0  0  0  0  0  0  0  0  0  0  0
    2.8547    0.6042    1.9653 H   0  0  0  0  0  0  0  0  0  0  0  0
   -0.5724   -0.3991   -1.6643 H   0  0  0  0  0  0  0  0  0  0  0  0
   -2.5379   -0.0773    1.7876 H   0  0  0  0  0  0  0  0  0  0  0  0
   -4.5606   -1.4345    2.1969 H   0  0  0  0  0  0  0  0  0  0  0  0
   -6.0967   -1.9810    0.3240 H   0  0  0  0  0  0  0  0  0  0  0  0
   -5.5920   -1.1603   -1.9631 H   0  0  0  0  0  0  0  0  0  0  0  0
   -3.5748    0.1995   -2.3769 H   0  0  0  0  0  0  0  0  0  0  0  0
   -0.4939    2.6253    0.4774 H   0  0  0  0  0  0  0  0  0  0  0  0
   -2.2706    2.6460    0.8392 H   0  0  0  0  0  0  0  0  0  0  0  0
   -2.7753    2.6660   -1.6095 H   0  0  0  0  0  0  0  0  0  0  0  0
   -0.9967    2.6372   -1.9805 H   0  0  0  0  0  0  0  0  0  0  0  0
  1  2  2  0
  2  3  1  0
  3  4  1  0
  4  5  1  0
  5  6  2  0
  6  7  1  0
  7  8  2  0
  8  9  1  0
  9 10  2  0
  2 11  1  0
 11 12  1  0
 12 13  1  0
 13 14  2  0
 14 15  1  0
 15 16  2  0
 16 17  1  0
 17 18  2  0
 12 19  1  0
 19 20  1  0
 10  5  1  0
 20 12  1  0
 18 13  1  0
  3 21  1  0
  4 22  1  0
  4 23  1  0
  6 24  1  0
  7 25  1  0
  8 26  1  0
 10 27  1  0
 11 28  1  0
 14 29  1  0
 15 30  1  0
 16 31  1  0
 17 32  1  0
 18 33  1  0
 19 34  1  0
 19 35  1  0
 20 36  1  0
 20 37  1  0
M  END
