
     RDKit          3D

 26 27  0  0  0  0  0  0  0  0999 V2000
   -1.0928   -0.9266    0.8887 O   0  0  0  0  0  0  0  0  0  0  0  0
   -0.9159    0.1169    0.2644 C   0  0  0  0  0  0  0  0  0  0  0  0
   -1.9816    0.9537   -0.0152 N   0  0  0  0  0  0  0  0  0  0  0  0
   -3.3332    0.6523    0.4055 C   0  0  0  0  0  0  0  0  0  0  0  0
   -3.9954   -0.4409   -0.4348 C   0  0  0  0  0  0  0  0  0  0  0  0
   -5.3920   -0.5102   -0.1606 O   0  0  0  0  0  0  0  0  0  0  0  0
    0.3812    0.5596   -0.2332 C   0  0  0  0  0  0  0  0  0  0  0  0
    0.5514    2.0199   -1.1430 S   0  0  0  0  0  0  0  0  0  0  0  0
    2.2415    1.8141   -1.3237 C   0  0  0  0  0  0  0  0  0  0  0  0
    2.6684    0.6744   -0.6955 C   0  0  0  0  0  0  0  0  0  0  0  0
    1.6086   -0.0573   -0.0979 C   0  0  0  0  0  0  0  0  0  0  0  0
    1.7867   -1.2312    0.5572 O   0  0  0  0  0  0  0  0  0  0  0  0
    3.0728   -1.7951    0.2514 C   0  0  0  0  0  0  0  0  0  0  0  0
    4.1799   -0.7364    0.2976 C   0  0  0  0  0  0  0  0  0  0  0  0
    3.9698    0.2999   -0.6791 O   0  0  0  0  0  0  0  0  0  0  0  0
   -1.7999    1.7955   -0.5464 H   0  0  0  0  0  0  0  0  0  0  0  0
   -3.9090    1.5819    0.3386 H   0  0  0  0  0  0  0  0  0  0  0  0
   -3.3262    0.3574    1.4612 H   0  0  0  0  0  0  0  0  0  0  0  0
   -3.5560   -1.4197   -0.2193 H   0  0  0  0  0  0  0  0  0  0  0  0
   -3.8666   -0.2480   -1.5054 H   0  0  0  0  0  0  0  0  0  0  0  0
   -5.7991    0.3079   -0.4920 H   0  0  0  0  0  0  0  0  0  0  0  0
    2.8353    2.5382   -1.8637 H   0  0  0  0  0  0  0  0  0  0  0  0
    3.0169   -2.2613   -0.7403 H   0  0  0  0  0  0  0  0  0  0  0  0
    3.2731   -2.5809    0.9865 H   0  0  0  0  0  0  0  0  0  0  0  0
    5.1502   -1.1971    0.0868 H   0  0  0  0  0  0  0  0  0  0  0  0
    4.2321   -0.2672    1.2881 H   0  0  0  0  0  0  0  0  0  0  0  0
  1  2  2  0
  2  3  1  0
  3  4  1  0
  4  5  1  0
  5  6  1  0
  2  7  1  0
  7  8  1  0
  8  9  1  0
  9 10  2  0
 10 11  1  0
 11 12  1  0
 12 13  1  0
 13 14  1  0
 14 15  1  0
 11  7  2  0
 15 10  1  0
  3 16  1  0
  4 17  1  0
  4 18  1  0
  5 19  1  0
  5 20  1  0
  6 21  1  0
  9 22  1  0
 13 23  1  0
 13 24  1  0
 14 25  1  0
 14 26  1  0
M  END
