
     RDKit          3D

 43 45  0  0  0  0  0  0  0  0999 V2000
    0.1919   -1.1340    1.5598 O   0  0  0  0  0  0  0  0  0  0  0  0
   -0.5066   -1.1076    0.5522 C   0  0  0  0  0  0  0  0  0  0  0  0
   -0.1128   -0.5154   -0.6271 N   0  0  0  0  0  0  0  0  0  0  0  0
    1.1115    0.2549   -0.7102 C   0  0  0  0  0  0  0  0  0  0  0  0
    2.3689   -0.6175   -0.7376 C   0  0  0  0  0  0  0  0  0  0  0  0
    3.5466    0.1846   -0.8513 O   0  0  0  0  0  0  0  0  0  0  0  0
    4.1190    0.6615    0.2954 C   0  0  0  0  0  0  0  0  0  0  0  0
    3.6252    0.5098    1.5939 C   0  0  0  0  0  0  0  0  0  0  0  0
    4.3189    1.0606    2.6763 C   0  0  0  0  0  0  0  0  0  0  0  0
    5.4992    1.7598    2.4567 C   0  0  0  0  0  0  0  0  0  0  0  0
    6.1596    2.2860    3.4963 F   0  0  0  0  0  0  0  0  0  0  0  0
    6.0018    1.9213    1.1730 C   0  0  0  0  0  0  0  0  0  0  0  0
    5.3087    1.3717    0.0933 C   0  0  0  0  0  0  0  0  0  0  0  0
   -1.8270   -1.7924    0.5437 C   0  0  0  0  0  0  0  0  0  0  0  0
   -1.8473   -3.0846    1.0968 C   0  0  0  0  0  0  0  0  0  0  0  0
   -3.0258   -3.8273    1.1180 C   0  0  0  0  0  0  0  0  0  0  0  0
   -4.1932   -3.2817    0.5960 C   0  0  0  0  0  0  0  0  0  0  0  0
   -4.1845   -1.9896    0.0632 C   0  0  0  0  0  0  0  0  0  0  0  0
   -3.0082   -1.2127    0.0301 C   0  0  0  0  0  0  0  0  0  0  0  0
   -3.0852    0.1631   -0.4924 C   0  0  0  0  0  0  0  0  0  0  0  0
   -3.4673    0.4067   -1.8228 C   0  0  0  0  0  0  0  0  0  0  0  0
   -3.5301    1.7090   -2.3245 C   0  0  0  0  0  0  0  0  0  0  0  0
   -3.2160    2.7883   -1.5024 C   0  0  0  0  0  0  0  0  0  0  0  0
   -2.8433    2.5676   -0.1788 C   0  0  0  0  0  0  0  0  0  0  0  0
   -2.7817    1.2656    0.3231 C   0  0  0  0  0  0  0  0  0  0  0  0
   -0.7468   -0.4994   -1.4159 H   0  0  0  0  0  0  0  0  0  0  0  0
    1.0597    0.8620   -1.6210 H   0  0  0  0  0  0  0  0  0  0  0  0
    1.1377    0.9553    0.1315 H   0  0  0  0  0  0  0  0  0  0  0  0
    2.4302   -1.3256    0.0964 H   0  0  0  0  0  0  0  0  0  0  0  0
    2.3344   -1.2432   -1.6382 H   0  0  0  0  0  0  0  0  0  0  0  0
    2.7031   -0.0243    1.8054 H   0  0  0  0  0  0  0  0  0  0  0  0
    3.9407    0.9469    3.6875 H   0  0  0  0  0  0  0  0  0  0  0  0
    6.9245    2.4705    1.0190 H   0  0  0  0  0  0  0  0  0  0  0  0
    5.6978    1.4948   -0.9145 H   0  0  0  0  0  0  0  0  0  0  0  0
   -0.9357   -3.5134    1.5098 H   0  0  0  0  0  0  0  0  0  0  0  0
   -3.0319   -4.8269    1.5454 H   0  0  0  0  0  0  0  0  0  0  0  0
   -5.1177   -3.8539    0.6160 H   0  0  0  0  0  0  0  0  0  0  0  0
   -5.1202   -1.5752   -0.3108 H   0  0  0  0  0  0  0  0  0  0  0  0
   -3.7150   -0.4227   -2.4828 H   0  0  0  0  0  0  0  0  0  0  0  0
   -3.8259    1.8806   -3.3564 H   0  0  0  0  0  0  0  0  0  0  0  0
   -3.2651    3.8023   -1.8912 H   0  0  0  0  0  0  0  0  0  0  0  0
   -2.6008    3.4083    0.4666 H   0  0  0  0  0  0  0  0  0  0  0  0
   -2.4909    1.1164    1.3621 H   0  0  0  0  0  0  0  0  0  0  0  0
  1  2  2  0
  2  3  1  0
  3  4  1  0
  4  5  1  0
  5  6  1  0
  6  7  1  0
  7  8  2  0
  8  9  1  0
  9 10  2  0
 10 11  1  0
 10 12  1  0
 12 13  2  0
  2 14  1  0
 14 15  2  0
 15 16  1  0
 16 17  2  0
 17 18  1  0
 18 19  2  0
 19 20  1  0
 20 21  2  0
 21 22  1  0
 22 23  2  0
 23 24  1  0
 24 25  2  0
 13  7  1  0
 19 14  1  0
 25 20  1  0
  3 26  1  0
  4 27  1  0
  4 28  1  0
  5 29  1  0
  5 30  1  0
  8 31  1  0
  9 32  1  0
 12 33  1  0
 13 34  1  0
 15 35  1  0
 16 36  1  0
 17 37  1  0
 18 38  1  0
 21 39  1  0
 22 40  1  0
 23 41  1  0
 24 42  1  0
 25 43  1  0
M  END
