
     RDKit          3D

 31 33  0  0  0  0  0  0  0  0999 V2000
    7.0395    1.0117    0.0036 O   0  0  0  0  0  0  0  0  0  0  0  0
    6.1515    0.2033    0.2059 C   0  0  0  0  0  0  0  0  0  0  0  0
    6.4120   -1.0256    0.6762 O   0  0  0  0  0  0  0  0  0  0  0  0
    4.7252    0.4637   -0.0319 C   0  0  0  0  0  0  0  0  0  0  0  0
    3.7579   -0.4389    0.1944 C   0  0  0  0  0  0  0  0  0  0  0  0
    2.3253   -0.1783   -0.0311 C   0  0  0  0  0  0  0  0  0  0  0  0
    1.3996   -0.7338    0.9181 C   0  0  0  0  0  0  0  0  0  0  0  0
   -0.0044   -0.6016    0.8400 C   0  0  0  0  0  0  0  0  0  0  0  0
   -0.3807    0.1238   -0.2870 C   0  0  0  0  0  0  0  0  0  0  0  0
   -1.6533    0.4502   -0.6783 C   0  0  0  0  0  0  0  0  0  0  0  0
   -3.0094    0.2041   -0.2114 C   0  0  0  0  0  0  0  0  0  0  0  0
   -3.9749    1.2205   -0.2658 C   0  0  0  0  0  0  0  0  0  0  0  0
   -5.2779    0.9932    0.1841 C   0  0  0  0  0  0  0  0  0  0  0  0
   -5.6327   -0.2553    0.6895 C   0  0  0  0  0  0  0  0  0  0  0  0
   -4.6875   -1.2773    0.7418 C   0  0  0  0  0  0  0  0  0  0  0  0
   -3.3837   -1.0493    0.2925 C   0  0  0  0  0  0  0  0  0  0  0  0
   -1.5542    1.1923   -1.8235 O   0  0  0  0  0  0  0  0  0  0  0  0
   -0.2295    1.3416   -2.1950 N   0  0  0  0  0  0  0  0  0  0  0  0
    0.5023    0.7013   -1.2694 C   0  0  0  0  0  0  0  0  0  0  0  0
    1.8969    0.5526   -1.1668 C   0  0  0  0  0  0  0  0  0  0  0  0
    7.3868   -1.0342    0.7745 H   0  0  0  0  0  0  0  0  0  0  0  0
    4.5135    1.4618   -0.3990 H   0  0  0  0  0  0  0  0  0  0  0  0
    4.0020   -1.4242    0.5868 H   0  0  0  0  0  0  0  0  0  0  0  0
    1.7996   -1.2886    1.7699 H   0  0  0  0  0  0  0  0  0  0  0  0
   -0.6734   -1.0135    1.5827 H   0  0  0  0  0  0  0  0  0  0  0  0
   -3.7168    2.2034   -0.6562 H   0  0  0  0  0  0  0  0  0  0  0  0
   -6.0145    1.7914    0.1374 H   0  0  0  0  0  0  0  0  0  0  0  0
   -6.6474   -0.4332    1.0369 H   0  0  0  0  0  0  0  0  0  0  0  0
   -4.9664   -2.2553    1.1260 H   0  0  0  0  0  0  0  0  0  0  0  0
   -2.6714   -1.8702    0.3225 H   0  0  0  0  0  0  0  0  0  0  0  0
    2.5659    0.9646   -1.9096 H   0  0  0  0  0  0  0  0  0  0  0  0
  1  2  2  0
  2  3  1  0
  2  4  1  0
  4  5  2  3
  5  6  1  0
  6  7  1  0
  7  8  2  0
  8  9  1  0
  9 10  2  0
 10 11  1  0
 11 12  2  0
 12 13  1  0
 13 14  2  0
 14 15  1  0
 15 16  2  0
 10 17  1  0
 17 18  1  0
 18 19  2  0
 19 20  1  0
 20  6  2  0
 19  9  1  0
 16 11  1  0
  3 21  1  0
  4 22  1  0
  5 23  1  0
  7 24  1  0
  8 25  1  0
 12 26  1  0
 13 27  1  0
 14 28  1  0
 15 29  1  0
 16 30  1  0
 20 31  1  0
M  END
