
     RDKit          3D

 39 41  0  0  0  0  0  0  0  0999 V2000
   -1.0293    1.8173    1.2772 O   0  0  0  0  0  0  0  0  0  0  0  0
   -2.0448    1.5348    0.6556 C   0  0  0  0  0  0  0  0  0  0  0  0
   -2.5322    2.3725   -0.2690 O   0  0  0  0  0  0  0  0  0  0  0  0
   -2.8172    0.2540    0.8430 C   0  0  0  0  0  0  0  0  0  0  0  0
   -4.1907    0.2215    0.1209 C   0  0  0  0  0  0  0  0  0  0  0  0
   -4.9594   -0.9634    0.6692 C   0  0  0  0  0  0  0  0  0  0  0  0
   -4.3577   -2.0714    0.2105 C   0  0  0  0  0  0  0  0  0  0  0  0
   -3.1925   -1.6259   -0.6487 C   0  0  0  0  0  0  0  0  0  0  0  0
   -3.8204   -0.3623   -1.2456 C   0  0  0  0  0  0  0  0  0  0  0  0
   -2.1097   -1.0297    0.2929 C   0  0  0  0  0  0  0  0  0  0  0  0
   -0.7921   -0.8153   -0.4447 C   0  0  0  0  0  0  0  0  0  0  0  0
   -0.6714   -0.9642   -1.6560 O   0  0  0  0  0  0  0  0  0  0  0  0
    0.2624   -0.4723    0.3779 N   0  0  0  0  0  0  0  0  0  0  0  0
    1.5487   -0.1237   -0.2016 C   0  0  0  0  0  0  0  0  0  0  0  0
    2.6544   -0.1124    0.8527 C   0  0  0  0  0  0  0  0  0  0  0  0
    3.9847    0.2931    0.2745 C   0  0  0  0  0  0  0  0  0  0  0  0
    4.4224    1.6178    0.3465 C   0  0  0  0  0  0  0  0  0  0  0  0
    5.6481    1.9441   -0.2141 C   0  0  0  0  0  0  0  0  0  0  0  0
    6.4517    1.0552   -0.8351 N   0  0  0  0  0  0  0  0  0  0  0  0
    6.0079   -0.2181   -0.8994 C   0  0  0  0  0  0  0  0  0  0  0  0
    4.7991   -0.6424   -0.3689 C   0  0  0  0  0  0  0  0  0  0  0  0
   -1.9082    3.1284   -0.2904 H   0  0  0  0  0  0  0  0  0  0  0  0
   -2.9810    0.1616    1.9259 H   0  0  0  0  0  0  0  0  0  0  0  0
   -4.7613    1.1506    0.0841 H   0  0  0  0  0  0  0  0  0  0  0  0
   -5.8065   -0.9156    1.3370 H   0  0  0  0  0  0  0  0  0  0  0  0
   -4.6233   -3.0941    0.4332 H   0  0  0  0  0  0  0  0  0  0  0  0
   -2.8642   -2.3622   -1.3840 H   0  0  0  0  0  0  0  0  0  0  0  0
   -3.1146    0.2535   -1.8119 H   0  0  0  0  0  0  0  0  0  0  0  0
   -4.6915   -0.5682   -1.8814 H   0  0  0  0  0  0  0  0  0  0  0  0
   -1.9063   -1.7291    1.1159 H   0  0  0  0  0  0  0  0  0  0  0  0
    0.0165    0.0236    1.2311 H   0  0  0  0  0  0  0  0  0  0  0  0
    1.4398    0.8636   -0.6664 H   0  0  0  0  0  0  0  0  0  0  0  0
    1.7818   -0.8370   -1.0012 H   0  0  0  0  0  0  0  0  0  0  0  0
    2.3856    0.5679    1.6714 H   0  0  0  0  0  0  0  0  0  0  0  0
    2.7442   -1.1040    1.3151 H   0  0  0  0  0  0  0  0  0  0  0  0
    3.8270    2.3862    0.8284 H   0  0  0  0  0  0  0  0  0  0  0  0
    6.0261    2.9618   -0.1777 H   0  0  0  0  0  0  0  0  0  0  0  0
    6.6703   -0.9136   -1.4067 H   0  0  0  0  0  0  0  0  0  0  0  0
    4.5037   -1.6826   -0.4600 H   0  0  0  0  0  0  0  0  0  0  0  0
  1  2  2  0
  2  3  1  0
  2  4  1  0
  4  5  1  0
  5  6  1  0
  6  7  2  0
  7  8  1  0
  8  9  1  0
  8 10  1  0
 10 11  1  0
 11 12  2  0
 11 13  1  0
 13 14  1  0
 14 15  1  0
 15 16  1  0
 16 17  2  0
 17 18  1  0
 18 19  2  0
 19 20  1  0
 20 21  2  0
 10  4  1  0
 21 16  1  0
  9  5  1  0
  3 22  1  0
  4 23  1  0
  5 24  1  0
  6 25  1  0
  7 26  1  0
  8 27  1  0
  9 28  1  0
  9 29  1  0
 10 30  1  0
 13 31  1  0
 14 32  1  0
 14 33  1  0
 15 34  1  0
 15 35  1  0
 17 36  1  0
 18 37  1  0
 20 38  1  0
 21 39  1  0
M  END
