
     RDKit          3D

 32 34  0  0  0  0  0  0  0  0999 V2000
    5.0489   -1.1215    1.6128 O   0  0  0  0  0  0  0  0  0  0  0  0
    4.9795   -0.3430    0.6801 C   0  0  0  0  0  0  0  0  0  0  0  0
    6.0767    0.2418    0.1702 O   0  0  0  0  0  0  0  0  0  0  0  0
    3.7331    0.0686   -0.0111 C   0  0  0  0  0  0  0  0  0  0  0  0
    3.7396    0.9741   -1.0796 C   0  0  0  0  0  0  0  0  0  0  0  0
    2.5407    1.3266   -1.7066 C   0  0  0  0  0  0  0  0  0  0  0  0
    1.3287    0.7839   -1.2626 C   0  0  0  0  0  0  0  0  0  0  0  0
    1.3143   -0.1145   -0.1875 C   0  0  0  0  0  0  0  0  0  0  0  0
    2.5193   -0.4787    0.4293 C   0  0  0  0  0  0  0  0  0  0  0  0
    0.0028   -0.7030    0.2482 C   0  0  0  0  0  0  0  0  0  0  0  0
   -1.0952    0.3344    0.0029 C   0  0  0  0  0  0  0  0  0  0  0  0
   -2.5111   -0.0962    0.3501 C   0  0  0  0  0  0  0  0  0  0  0  0
   -2.8303   -1.3483    0.8974 C   0  0  0  0  0  0  0  0  0  0  0  0
   -4.1528   -1.6763    1.2125 C   0  0  0  0  0  0  0  0  0  0  0  0
   -5.1766   -0.7600    0.9877 C   0  0  0  0  0  0  0  0  0  0  0  0
   -4.8813    0.4868    0.4461 C   0  0  0  0  0  0  0  0  0  0  0  0
   -3.5613    0.8155    0.1319 C   0  0  0  0  0  0  0  0  0  0  0  0
   -1.0872    0.7192   -1.3911 O   0  0  0  0  0  0  0  0  0  0  0  0
    0.0674    1.1385   -1.9673 C   0  0  0  0  0  0  0  0  0  0  0  0
    0.0825    1.7533   -3.0246 O   0  0  0  0  0  0  0  0  0  0  0  0
    6.8119   -0.1162    0.7111 H   0  0  0  0  0  0  0  0  0  0  0  0
    4.6718    1.4050   -1.4385 H   0  0  0  0  0  0  0  0  0  0  0  0
    2.5568    2.0192   -2.5469 H   0  0  0  0  0  0  0  0  0  0  0  0
    2.5178   -1.1895    1.2551 H   0  0  0  0  0  0  0  0  0  0  0  0
    0.0422   -0.9736    1.3097 H   0  0  0  0  0  0  0  0  0  0  0  0
   -0.1698   -1.6120   -0.3412 H   0  0  0  0  0  0  0  0  0  0  0  0
   -0.8847    1.2365    0.5964 H   0  0  0  0  0  0  0  0  0  0  0  0
   -2.0668   -2.0972    1.0887 H   0  0  0  0  0  0  0  0  0  0  0  0
   -4.3838   -2.6521    1.6326 H   0  0  0  0  0  0  0  0  0  0  0  0
   -6.2037   -1.0190    1.2305 H   0  0  0  0  0  0  0  0  0  0  0  0
   -5.6771    1.2040    0.2628 H   0  0  0  0  0  0  0  0  0  0  0  0
   -3.3523    1.7938   -0.2991 H   0  0  0  0  0  0  0  0  0  0  0  0
  1  2  2  0
  2  3  1  0
  2  4  1  0
  4  5  2  0
  5  6  1  0
  6  7  2  0
  7  8  1  0
  8  9  2  0
  8 10  1  0
 10 11  1  0
 11 12  1  0
 12 13  2  0
 13 14  1  0
 14 15  2  0
 15 16  1  0
 16 17  2  0
 11 18  1  0
 18 19  1  0
 19 20  2  0
  9  4  1  0
 17 12  1  0
 19  7  1  0
  3 21  1  0
  5 22  1  0
  6 23  1  0
  9 24  1  0
 10 25  1  0
 10 26  1  0
 11 27  1  0
 13 28  1  0
 14 29  1  0
 15 30  1  0
 16 31  1  0
 17 32  1  0
M  END
