
     RDKit          3D

 38 39  0  0  0  0  0  0  0  0999 V2000
   -4.4258   -1.7883   -2.2188 O   0  0  0  0  0  0  0  0  0  0  0  0
   -3.7173   -2.4260   -1.4581 C   0  0  0  0  0  0  0  0  0  0  0  0
   -3.9561   -3.7342   -1.2365 O   0  0  0  0  0  0  0  0  0  0  0  0
   -2.4980   -1.9417   -0.7233 C   0  0  0  0  0  0  0  0  0  0  0  0
   -2.4860   -0.4108   -0.6567 C   0  0  0  0  0  0  0  0  0  0  0  0
   -3.5248    0.1103    0.3659 C   0  0  0  0  0  0  0  0  0  0  0  0
   -4.3742   -0.5838    0.9141 O   0  0  0  0  0  0  0  0  0  0  0  0
   -3.4336    1.4578    0.6328 N   0  0  0  0  0  0  0  0  0  0  0  0
   -2.5688    2.2993   -0.1626 C   0  0  0  0  0  0  0  0  0  0  0  0
   -1.1989    1.6475   -0.4718 C   0  0  0  0  0  0  0  0  0  0  0  0
   -1.1338    0.1655   -0.3542 N   0  0  0  0  0  0  0  0  0  0  0  0
   -0.6252   -0.2285    0.9720 C   0  0  0  0  0  0  0  0  0  0  0  0
    0.8717   -0.1169    1.1320 C   0  0  0  0  0  0  0  0  0  0  0  0
    1.7750    0.0837    0.1568 C   0  0  0  0  0  0  0  0  0  0  0  0
    3.2237    0.1904    0.3780 C   0  0  0  0  0  0  0  0  0  0  0  0
    3.9004   -0.6031    1.3134 C   0  0  0  0  0  0  0  0  0  0  0  0
    5.2843   -0.4909    1.4729 C   0  0  0  0  0  0  0  0  0  0  0  0
    6.0069    0.4080    0.6913 C   0  0  0  0  0  0  0  0  0  0  0  0
    5.3479    1.1908   -0.2541 C   0  0  0  0  0  0  0  0  0  0  0  0
    3.9644    1.0779   -0.4136 C   0  0  0  0  0  0  0  0  0  0  0  0
   -4.7715   -3.9179   -1.7480 H   0  0  0  0  0  0  0  0  0  0  0  0
   -2.5063   -2.3844    0.2789 H   0  0  0  0  0  0  0  0  0  0  0  0
   -1.6228   -2.3106   -1.2701 H   0  0  0  0  0  0  0  0  0  0  0  0
   -2.7855   -0.0245   -1.6411 H   0  0  0  0  0  0  0  0  0  0  0  0
   -4.1711    1.8474    1.2068 H   0  0  0  0  0  0  0  0  0  0  0  0
   -3.1017    2.5047   -1.0980 H   0  0  0  0  0  0  0  0  0  0  0  0
   -2.4345    3.2455    0.3706 H   0  0  0  0  0  0  0  0  0  0  0  0
   -0.4316    2.1276    0.1486 H   0  0  0  0  0  0  0  0  0  0  0  0
   -0.9271    1.9135   -1.5014 H   0  0  0  0  0  0  0  0  0  0  0  0
   -0.8535   -1.2785    1.1828 H   0  0  0  0  0  0  0  0  0  0  0  0
   -1.1046    0.3555    1.7678 H   0  0  0  0  0  0  0  0  0  0  0  0
    1.2116   -0.2159    2.1609 H   0  0  0  0  0  0  0  0  0  0  0  0
    1.4483    0.1905   -0.8752 H   0  0  0  0  0  0  0  0  0  0  0  0
    3.3605   -1.3263    1.9192 H   0  0  0  0  0  0  0  0  0  0  0  0
    5.7973   -1.1111    2.2032 H   0  0  0  0  0  0  0  0  0  0  0  0
    7.0833    0.4936    0.8145 H   0  0  0  0  0  0  0  0  0  0  0  0
    5.9097    1.8880   -0.8699 H   0  0  0  0  0  0  0  0  0  0  0  0
    3.4676    1.6956   -1.1583 H   0  0  0  0  0  0  0  0  0  0  0  0
  1  2  2  0
  2  3  1  0
  2  4  1  0
  4  5  1  0
  5  6  1  0
  6  7  2  0
  6  8  1  0
  8  9  1  0
  9 10  1  0
 10 11  1  0
 11 12  1  0
 12 13  1  0
 13 14  2  3
 14 15  1  0
 15 16  2  0
 16 17  1  0
 17 18  2  0
 18 19  1  0
 19 20  2  0
 11  5  1  0
 20 15  1  0
  3 21  1  0
  4 22  1  0
  4 23  1  0
  5 24  1  0
  8 25  1  0
  9 26  1  0
  9 27  1  0
 10 28  1  0
 10 29  1  0
 12 30  1  0
 12 31  1  0
 13 32  1  0
 14 33  1  0
 16 34  1  0
 17 35  1  0
 18 36  1  0
 19 37  1  0
 20 38  1  0
M  END
