
     RDKit          3D

 38 40  0  0  0  0  0  0  0  0999 V2000
    5.7544    0.8942    1.4108 O   0  0  0  0  0  0  0  0  0  0  0  0
    5.3005   -0.1461    0.9661 C   0  0  0  0  0  0  0  0  0  0  0  0
    5.3907   -1.2875    1.6765 O   0  0  0  0  0  0  0  0  0  0  0  0
    4.6603   -0.3602   -0.3761 C   0  0  0  0  0  0  0  0  0  0  0  0
    4.0338    0.9160   -0.9252 C   0  0  0  0  0  0  0  0  0  0  0  0
    2.5180    1.4149   -0.0390 S   0  0  0  0  0  0  0  0  0  0  0  0
    1.3540    0.2811   -0.6569 C   0  0  0  0  0  0  0  0  0  0  0  0
    1.6140   -0.5770   -1.6151 N   0  0  0  0  0  0  0  0  0  0  0  0
    0.4475   -1.1970   -1.9523 N   0  0  0  0  0  0  0  0  0  0  0  0
   -0.5173   -0.7392   -1.1731 C   0  0  0  0  0  0  0  0  0  0  0  0
   -1.8797   -1.2781   -1.1792 C   0  0  0  0  0  0  0  0  0  0  0  0
   -2.5493   -1.4375   -2.4007 C   0  0  0  0  0  0  0  0  0  0  0  0
   -3.8450   -1.9571   -2.4394 C   0  0  0  0  0  0  0  0  0  0  0  0
   -4.4794   -2.3349   -1.2579 C   0  0  0  0  0  0  0  0  0  0  0  0
   -3.8165   -2.2032   -0.0392 C   0  0  0  0  0  0  0  0  0  0  0  0
   -2.5198   -1.6846    0.0003 C   0  0  0  0  0  0  0  0  0  0  0  0
    0.0034    0.2536   -0.3365 N   0  0  0  0  0  0  0  0  0  0  0  0
   -0.7109    1.0658    0.5913 C   0  0  0  0  0  0  0  0  0  0  0  0
   -0.1653    1.3669    1.8458 C   0  0  0  0  0  0  0  0  0  0  0  0
   -0.8806    2.1558    2.7501 C   0  0  0  0  0  0  0  0  0  0  0  0
   -2.1395    2.6465    2.4102 C   0  0  0  0  0  0  0  0  0  0  0  0
   -2.6886    2.3491    1.1651 C   0  0  0  0  0  0  0  0  0  0  0  0
   -1.9797    1.5609    0.2559 C   0  0  0  0  0  0  0  0  0  0  0  0
    5.8452   -1.0206    2.5029 H   0  0  0  0  0  0  0  0  0  0  0  0
    5.4527   -0.6954   -1.0551 H   0  0  0  0  0  0  0  0  0  0  0  0
    3.9216   -1.1654   -0.3042 H   0  0  0  0  0  0  0  0  0  0  0  0
    4.7406    1.7498   -0.8513 H   0  0  0  0  0  0  0  0  0  0  0  0
    3.8051    0.7965   -1.9897 H   0  0  0  0  0  0  0  0  0  0  0  0
   -2.0589   -1.1591   -3.3321 H   0  0  0  0  0  0  0  0  0  0  0  0
   -4.3541   -2.0737   -3.3928 H   0  0  0  0  0  0  0  0  0  0  0  0
   -5.4863   -2.7435   -1.2882 H   0  0  0  0  0  0  0  0  0  0  0  0
   -4.3057   -2.5115    0.8815 H   0  0  0  0  0  0  0  0  0  0  0  0
   -2.0161   -1.6095    0.9615 H   0  0  0  0  0  0  0  0  0  0  0  0
    0.7948    0.9703    2.1662 H   0  0  0  0  0  0  0  0  0  0  0  0
   -0.4554    2.3834    3.7249 H   0  0  0  0  0  0  0  0  0  0  0  0
   -2.6923    3.2615    3.1159 H   0  0  0  0  0  0  0  0  0  0  0  0
   -3.6685    2.7373    0.8974 H   0  0  0  0  0  0  0  0  0  0  0  0
   -2.4275    1.3775   -0.7184 H   0  0  0  0  0  0  0  0  0  0  0  0
  1  2  2  0
  2  3  1  0
  2  4  1  0
  4  5  1  0
  5  6  1  0
  6  7  1  0
  7  8  2  0
  8  9  1  0
  9 10  2  0
 10 11  1  0
 11 12  2  0
 12 13  1  0
 13 14  2  0
 14 15  1  0
 15 16  2  0
 10 17  1  0
 17 18  1  0
 18 19  2  0
 19 20  1  0
 20 21  2  0
 21 22  1  0
 22 23  2  0
 17  7  1  0
 23 18  1  0
 16 11  1  0
  3 24  1  0
  4 25  1  0
  4 26  1  0
  5 27  1  0
  5 28  1  0
 12 29  1  0
 13 30  1  0
 14 31  1  0
 15 32  1  0
 16 33  1  0
 19 34  1  0
 20 35  1  0
 21 36  1  0
 22 37  1  0
 23 38  1  0
M  END
