
     RDKit          3D

 36 38  0  0  0  0  0  0  0  0999 V2000
   -1.8634    1.7489    1.6704 O   0  0  0  0  0  0  0  0  0  0  0  0
   -1.2731    1.6112    0.6138 C   0  0  0  0  0  0  0  0  0  0  0  0
   -1.1994    2.5005   -0.4084 O   0  0  0  0  0  0  0  0  0  0  0  0
   -1.9273    3.7047   -0.1711 C   0  0  0  0  0  0  0  0  0  0  0  0
   -0.4641    0.4410    0.2506 C   0  0  0  0  0  0  0  0  0  0  0  0
    0.9187    0.5607    0.4883 C   0  0  0  0  0  0  0  0  0  0  0  0
    1.7876   -0.4995    0.2265 C   0  0  0  0  0  0  0  0  0  0  0  0
    3.1723   -0.3787    0.4521 N   0  0  0  0  0  0  0  0  0  0  0  0
    4.1055   -1.4417    0.7016 C   0  0  0  0  0  0  0  0  0  0  0  0
    5.0766   -0.3605    1.1858 C   0  0  0  0  0  0  0  0  0  0  0  0
    3.8257    0.5021    1.3801 C   0  0  0  0  0  0  0  0  0  0  0  0
    1.2399   -1.6758   -0.2894 C   0  0  0  0  0  0  0  0  0  0  0  0
   -0.1382   -1.7946   -0.5214 C   0  0  0  0  0  0  0  0  0  0  0  0
   -1.0278   -0.7372   -0.2669 C   0  0  0  0  0  0  0  0  0  0  0  0
   -2.4068   -0.9262   -0.5156 N   0  0  0  0  0  0  0  0  0  0  0  0
   -3.4102    0.0553   -0.8194 C   0  0  0  0  0  0  0  0  0  0  0  0
   -4.3048   -1.1083   -1.2536 C   0  0  0  0  0  0  0  0  0  0  0  0
   -3.0031   -1.8983   -1.3919 C   0  0  0  0  0  0  0  0  0  0  0  0
   -2.9917    3.4893   -0.0338 H   0  0  0  0  0  0  0  0  0  0  0  0
   -1.5229    4.2320    0.6986 H   0  0  0  0  0  0  0  0  0  0  0  0
   -1.8151    4.3474   -1.0486 H   0  0  0  0  0  0  0  0  0  0  0  0
    1.3069    1.4954    0.8847 H   0  0  0  0  0  0  0  0  0  0  0  0
    3.7623   -2.1363    1.4755 H   0  0  0  0  0  0  0  0  0  0  0  0
    4.4076   -1.9797   -0.1997 H   0  0  0  0  0  0  0  0  0  0  0  0
    5.6379   -0.5964    2.0932 H   0  0  0  0  0  0  0  0  0  0  0  0
    5.7633    0.0073    0.4152 H   0  0  0  0  0  0  0  0  0  0  0  0
    3.9019    1.5326    1.0262 H   0  0  0  0  0  0  0  0  0  0  0  0
    3.3878    0.4639    2.3831 H   0  0  0  0  0  0  0  0  0  0  0  0
    1.8803   -2.5233   -0.5193 H   0  0  0  0  0  0  0  0  0  0  0  0
   -0.5086   -2.7410   -0.9076 H   0  0  0  0  0  0  0  0  0  0  0  0
   -3.1135    0.7320   -1.6270 H   0  0  0  0  0  0  0  0  0  0  0  0
   -3.7750    0.6087    0.0477 H   0  0  0  0  0  0  0  0  0  0  0  0
   -4.8700   -0.9557   -2.1762 H   0  0  0  0  0  0  0  0  0  0  0  0
   -4.9757   -1.4783   -0.4702 H   0  0  0  0  0  0  0  0  0  0  0  0
   -2.5633   -1.8922   -2.3947 H   0  0  0  0  0  0  0  0  0  0  0  0
   -3.0204   -2.9094   -0.9787 H   0  0  0  0  0  0  0  0  0  0  0  0
  1  2  2  0
  2  3  1  0
  3  4  1  0
  2  5  1  0
  5  6  2  0
  6  7  1  0
  7  8  1  0
  8  9  1  0
  9 10  1  0
 10 11  1  0
  7 12  2  0
 12 13  1  0
 13 14  2  0
 14 15  1  0
 15 16  1  0
 16 17  1  0
 17 18  1  0
 14  5  1  0
 11  8  1  0
 18 15  1  0
  4 19  1  0
  4 20  1  0
  4 21  1  0
  6 22  1  0
  9 23  1  0
  9 24  1  0
 10 25  1  0
 10 26  1  0
 11 27  1  0
 11 28  1  0
 12 29  1  0
 13 30  1  0
 16 31  1  0
 16 32  1  0
 17 33  1  0
 17 34  1  0
 18 35  1  0
 18 36  1  0
M  END
