
     RDKit          3D

 49 56  0  0  0  0  0  0  0  0999 V2000
    7.1362   -0.4501   -2.2824 Si  0  0  0  0  0  4  0  0  0  0  0  0
    8.5129    0.5409   -1.4541 C   0  0  0  0  0  0  0  0  0  0  0  0
    8.0994    1.1253   -0.3132 C   0  0  0  0  0  0  0  0  0  0  0  0
    6.6900    0.8525    0.0071 C   0  0  0  0  0  0  0  0  0  0  0  0
    6.1373    1.3668    1.1112 N   0  0  0  0  0  0  0  0  0  0  0  0
    4.8363    1.0816    1.3555 C   0  0  0  0  0  0  0  0  0  0  0  0
    4.0749    0.2737    0.4862 C   0  0  0  0  0  0  0  0  0  0  0  0
    2.7371   -0.1583    0.5159 C   0  0  0  0  0  0  0  0  0  0  0  0
    1.2554    0.0741    1.6680 Si  0  0  0  0  0  4  0  0  0  0  0  0
    0.2499   -1.0093    0.4471 C   0  0  0  0  0  0  0  0  0  0  0  0
    0.9900   -1.4470   -0.5964 C   0  0  0  0  0  0  0  0  0  0  0  0
    2.3250   -0.9564   -0.5264 C   0  0  0  0  0  0  0  0  0  0  0  0
    3.5893   -1.2190   -1.6116 S   0  0  0  0  0  0  0  0  0  0  0  0
    4.6909   -0.2516   -0.6704 C   0  0  0  0  0  0  0  0  0  0  0  0
    6.0274    0.0441   -0.9144 C   0  0  0  0  0  0  0  0  0  0  0  0
   -1.1027   -1.3490    0.6848 C   0  0  0  0  0  0  0  0  0  0  0  0
   -1.3552   -2.7883    1.6194 S   0  0  0  0  0  0  0  0  0  0  0  0
   -3.0442   -2.6078    1.6032 C   0  0  0  0  0  0  0  0  0  0  0  0
   -3.4426   -1.4995    0.8949 C   0  0  0  0  0  0  0  0  0  0  0  0
   -2.3209   -0.7692    0.3287 C   0  0  0  0  0  0  0  0  0  0  0  0
   -2.4984    0.4146   -0.4724 C   0  0  0  0  0  0  0  0  0  0  0  0
   -1.4721    1.1777   -1.0989 C   0  0  0  0  0  0  0  0  0  0  0  0
   -1.7587    2.3154   -1.8440 C   0  0  0  0  0  0  0  0  0  0  0  0
   -3.0719    2.7162   -1.9868 C   0  0  0  0  0  0  0  0  0  0  0  0
   -4.0981    1.9737   -1.3918 C   0  0  0  0  0  0  0  0  0  0  0  0
   -3.8799    0.8020   -0.6215 C   0  0  0  0  0  0  0  0  0  0  0  0
   -5.0012    0.0487   -0.0293 C   0  0  0  0  0  0  0  0  0  0  0  0
   -6.3606    0.4318   -0.1825 C   0  0  0  0  0  0  0  0  0  0  0  0
   -7.4359   -0.2788    0.3708 C   0  0  0  0  0  0  0  0  0  0  0  0
   -7.2071   -1.4228    1.1146 C   0  0  0  0  0  0  0  0  0  0  0  0
   -5.9024   -1.8555    1.3060 C   0  0  0  0  0  0  0  0  0  0  0  0
   -4.8081   -1.1372    0.7471 C   0  0  0  0  0  0  0  0  0  0  0  0
    7.4629   -1.8975   -2.3084 H   0  0  0  0  0  0  0  0  0  0  0  0
    6.7760    0.1353   -3.5978 H   0  0  0  0  0  0  0  0  0  0  0  0
    9.4989    0.5981   -1.8882 H   0  0  0  0  0  0  0  0  0  0  0  0
    8.7019    1.7419    0.3380 H   0  0  0  0  0  0  0  0  0  0  0  0
    4.4250    1.5161    2.2606 H   0  0  0  0  0  0  0  0  0  0  0  0
    1.4447   -0.5737    2.9907 H   0  0  0  0  0  0  0  0  0  0  0  0
    0.7777    1.4794    1.7017 H   0  0  0  0  0  0  0  0  0  0  0  0
    0.6315   -2.0899   -1.3912 H   0  0  0  0  0  0  0  0  0  0  0  0
   -3.6418   -3.3418    2.1231 H   0  0  0  0  0  0  0  0  0  0  0  0
   -0.4306    0.8961   -1.0337 H   0  0  0  0  0  0  0  0  0  0  0  0
   -0.9569    2.8800   -2.3119 H   0  0  0  0  0  0  0  0  0  0  0  0
   -3.3117    3.6039   -2.5665 H   0  0  0  0  0  0  0  0  0  0  0  0
   -5.1014    2.3542   -1.5599 H   0  0  0  0  0  0  0  0  0  0  0  0
   -6.6313    1.3160   -0.7523 H   0  0  0  0  0  0  0  0  0  0  0  0
   -8.4527    0.0726    0.2123 H   0  0  0  0  0  0  0  0  0  0  0  0
   -8.0381   -1.9753    1.5437 H   0  0  0  0  0  0  0  0  0  0  0  0
   -5.7458   -2.7546    1.8938 H   0  0  0  0  0  0  0  0  0  0  0  0
  1  2  1  0
  2  3  2  0
  3  4  1  0
  4  5  2  0
  5  6  1  0
  6  7  2  0
  7  8  1  0
  8  9  1  0
  9 10  1  0
 10 11  2  0
 11 12  1  0
 12 13  1  0
 13 14  1  0
 14 15  2  0
 10 16  1  0
 16 17  1  0
 17 18  1  0
 18 19  2  0
 19 20  1  0
 20 21  1  0
 21 22  2  0
 22 23  1  0
 23 24  2  0
 24 25  1  0
 25 26  2  0
 26 27  1  0
 27 28  2  0
 28 29  1  0
 29 30  2  0
 30 31  1  0
 31 32  2  0
 15  1  1  0
 20 16  2  0
 26 21  1  0
 32 27  1  0
 15  4  1  0
 32 19  1  0
 14  7  1  0
 12  8  2  0
  1 33  1  0
  1 34  1  0
  2 35  1  0
  3 36  1  0
  6 37  1  0
  9 38  1  0
  9 39  1  0
 11 40  1  0
 18 41  1  0
 22 42  1  0
 23 43  1  0
 24 44  1  0
 25 45  1  0
 28 46  1  0
 29 47  1  0
 30 48  1  0
 31 49  1  0
M  END
