
     RDKit          3D

 48 50  0  0  0  0  0  0  0  0999 V2000
   -3.4421   -0.4483   -1.1288 O   0  0  0  0  0  0  0  0  0  0  0  0
   -2.7528   -0.7293   -0.1645 C   0  0  0  0  0  0  0  0  0  0  0  0
   -3.0986   -1.4778    0.9111 O   0  0  0  0  0  0  0  0  0  0  0  0
   -4.4109   -2.0535    0.8727 C   0  0  0  0  0  0  0  0  0  0  0  0
   -5.4372   -1.0718    1.3941 C   0  0  0  0  0  0  0  0  0  0  0  0
   -1.3322   -0.3735   -0.0357 C   0  0  0  0  0  0  0  0  0  0  0  0
   -0.4208   -1.3701   -0.4501 C   0  0  0  0  0  0  0  0  0  0  0  0
    0.9706   -1.1701   -0.4182 C   0  0  0  0  0  0  0  0  0  0  0  0
    1.7881   -2.2213   -0.8835 N   0  0  0  0  0  0  0  0  0  0  0  0
    3.2180   -2.3093   -1.0293 C   0  0  0  0  0  0  0  0  0  0  0  0
    3.0151   -3.8169   -1.1953 C   0  0  0  0  0  0  0  0  0  0  0  0
    1.6995   -3.5899   -0.4356 C   0  0  0  0  0  0  0  0  0  0  0  0
    1.4093    0.0797    0.0372 C   0  0  0  0  0  0  0  0  0  0  0  0
    2.8305    0.4222    0.1908 C   0  0  0  0  0  0  0  0  0  0  0  0
    3.2249    1.1067   -0.9144 O   0  0  0  0  0  0  0  0  0  0  0  0
    4.5945    1.5348   -0.8907 C   0  0  0  0  0  0  0  0  0  0  0  0
    4.7513    2.6847   -1.8717 C   0  0  0  0  0  0  0  0  0  0  0  0
    3.4910    0.1576    1.1867 O   0  0  0  0  0  0  0  0  0  0  0  0
    0.4998    1.0691    0.4691 C   0  0  0  0  0  0  0  0  0  0  0  0
   -0.8923    0.8704    0.4365 C   0  0  0  0  0  0  0  0  0  0  0  0
   -1.7318    1.8859    0.9304 N   0  0  0  0  0  0  0  0  0  0  0  0
   -3.1138    2.1479    0.6809 C   0  0  0  0  0  0  0  0  0  0  0  0
   -2.9200    3.4877    1.3853 C   0  0  0  0  0  0  0  0  0  0  0  0
   -1.4317    3.2736    1.1334 C   0  0  0  0  0  0  0  0  0  0  0  0
   -4.6736   -2.3952   -0.1364 H   0  0  0  0  0  0  0  0  0  0  0  0
   -4.3892   -2.9379    1.5213 H   0  0  0  0  0  0  0  0  0  0  0  0
   -5.5200   -0.2151    0.7223 H   0  0  0  0  0  0  0  0  0  0  0  0
   -6.4231   -1.5395    1.4789 H   0  0  0  0  0  0  0  0  0  0  0  0
   -5.1476   -0.6927    2.3739 H   0  0  0  0  0  0  0  0  0  0  0  0
   -0.8166   -2.3178   -0.8190 H   0  0  0  0  0  0  0  0  0  0  0  0
    3.7844   -2.0429   -0.1426 H   0  0  0  0  0  0  0  0  0  0  0  0
    3.5844   -1.7942   -1.9211 H   0  0  0  0  0  0  0  0  0  0  0  0
    3.7332   -4.4638   -0.6995 H   0  0  0  0  0  0  0  0  0  0  0  0
    2.8940   -4.1391   -2.2338 H   0  0  0  0  0  0  0  0  0  0  0  0
    0.8320   -4.1431   -0.8039 H   0  0  0  0  0  0  0  0  0  0  0  0
    1.7741   -3.6738    0.6540 H   0  0  0  0  0  0  0  0  0  0  0  0
    4.8851    1.8795    0.1099 H   0  0  0  0  0  0  0  0  0  0  0  0
    5.2292    0.6917   -1.1801 H   0  0  0  0  0  0  0  0  0  0  0  0
    4.1295    3.5303   -1.5556 H   0  0  0  0  0  0  0  0  0  0  0  0
    4.4151    2.3984   -2.8762 H   0  0  0  0  0  0  0  0  0  0  0  0
    5.7929    3.0162   -1.9280 H   0  0  0  0  0  0  0  0  0  0  0  0
    0.9025    2.0030    0.8543 H   0  0  0  0  0  0  0  0  0  0  0  0
   -3.7879    1.4601    1.1821 H   0  0  0  0  0  0  0  0  0  0  0  0
   -3.3438    2.2216   -0.3828 H   0  0  0  0  0  0  0  0  0  0  0  0
   -3.1852    3.4893    2.4433 H   0  0  0  0  0  0  0  0  0  0  0  0
   -3.3618    4.3596    0.8890 H   0  0  0  0  0  0  0  0  0  0  0  0
   -0.7871    3.4584    1.9991 H   0  0  0  0  0  0  0  0  0  0  0  0
   -1.0292    3.7587    0.2407 H   0  0  0  0  0  0  0  0  0  0  0  0
  1  2  2  0
  2  3  1  0
  3  4  1  0
  4  5  1  0
  2  6  1  0
  6  7  2  0
  7  8  1  0
  8  9  1  0
  9 10  1  0
 10 11  1  0
 11 12  1  0
  8 13  2  0
 13 14  1  0
 14 15  1  0
 15 16  1  0
 16 17  1  0
 14 18  2  0
 13 19  1  0
 19 20  2  0
 20 21  1  0
 21 22  1  0
 22 23  1  0
 23 24  1  0
 20  6  1  0
 12  9  1  0
 24 21  1  0
  4 25  1  0
  4 26  1  0
  5 27  1  0
  5 28  1  0
  5 29  1  0
  7 30  1  0
 10 31  1  0
 10 32  1  0
 11 33  1  0
 11 34  1  0
 12 35  1  0
 12 36  1  0
 16 37  1  0
 16 38  1  0
 17 39  1  0
 17 40  1  0
 17 41  1  0
 19 42  1  0
 22 43  1  0
 22 44  1  0
 23 45  1  0
 23 46  1  0
 24 47  1  0
 24 48  1  0
M  END
