
     RDKit          3D

 39 40  0  0  0  0  0  0  0  0999 V2000
   -3.2201    0.7842   -0.9357 O   0  0  0  0  0  0  0  0  0  0  0  0
   -2.3705    0.8484   -0.0660 C   0  0  0  0  0  0  0  0  0  0  0  0
   -2.5421    1.2142    1.2294 O   0  0  0  0  0  0  0  0  0  0  0  0
   -3.8763    1.5955    1.5938 C   0  0  0  0  0  0  0  0  0  0  0  0
   -4.6786    0.3792    2.0149 C   0  0  0  0  0  0  0  0  0  0  0  0
   -0.9360    0.5857   -0.2675 C   0  0  0  0  0  0  0  0  0  0  0  0
   -0.1055    1.7217   -0.2929 C   0  0  0  0  0  0  0  0  0  0  0  0
    1.2630    1.5912   -0.5222 C   0  0  0  0  0  0  0  0  0  0  0  0
    1.8088    0.3239   -0.7384 C   0  0  0  0  0  0  0  0  0  0  0  0
    3.2597    0.1127   -0.9965 C   0  0  0  0  0  0  0  0  0  0  0  0
    3.9158    1.2992   -1.0312 O   0  0  0  0  0  0  0  0  0  0  0  0
    5.3221    1.1852   -1.2813 C   0  0  0  0  0  0  0  0  0  0  0  0
    5.9144    2.5809   -1.2917 C   0  0  0  0  0  0  0  0  0  0  0  0
    3.7648   -0.9876   -1.1514 O   0  0  0  0  0  0  0  0  0  0  0  0
    0.9702   -0.8039   -0.7132 C   0  0  0  0  0  0  0  0  0  0  0  0
   -0.4149   -0.7066   -0.4655 C   0  0  0  0  0  0  0  0  0  0  0  0
   -1.1855   -1.8935   -0.4520 N   0  0  0  0  0  0  0  0  0  0  0  0
   -2.4246   -2.1566    0.2240 C   0  0  0  0  0  0  0  0  0  0  0  0
   -2.1659   -3.6416   -0.0381 C   0  0  0  0  0  0  0  0  0  0  0  0
   -0.7059   -3.2319   -0.2265 C   0  0  0  0  0  0  0  0  0  0  0  0
   -4.3713    2.1398    0.7813 H   0  0  0  0  0  0  0  0  0  0  0  0
   -3.7898    2.2883    2.4374 H   0  0  0  0  0  0  0  0  0  0  0  0
   -5.6681    0.6739    2.3759 H   0  0  0  0  0  0  0  0  0  0  0  0
   -4.1604   -0.1694    2.8082 H   0  0  0  0  0  0  0  0  0  0  0  0
   -4.8077   -0.3136    1.1780 H   0  0  0  0  0  0  0  0  0  0  0  0
   -0.5314    2.7119   -0.1419 H   0  0  0  0  0  0  0  0  0  0  0  0
    1.8845    2.4832   -0.5379 H   0  0  0  0  0  0  0  0  0  0  0  0
    5.7915    0.5899   -0.4901 H   0  0  0  0  0  0  0  0  0  0  0  0
    5.4872    0.7056   -2.2526 H   0  0  0  0  0  0  0  0  0  0  0  0
    5.4391    3.1956   -2.0633 H   0  0  0  0  0  0  0  0  0  0  0  0
    6.9911    2.5466   -1.4805 H   0  0  0  0  0  0  0  0  0  0  0  0
    5.7391    3.0811   -0.3335 H   0  0  0  0  0  0  0  0  0  0  0  0
    1.4143   -1.7814   -0.8959 H   0  0  0  0  0  0  0  0  0  0  0  0
   -2.4042   -1.8641    1.2784 H   0  0  0  0  0  0  0  0  0  0  0  0
   -3.3061   -1.7600   -0.2821 H   0  0  0  0  0  0  0  0  0  0  0  0
   -2.6455   -4.0303   -0.9435 H   0  0  0  0  0  0  0  0  0  0  0  0
   -2.3682   -4.3142    0.7990 H   0  0  0  0  0  0  0  0  0  0  0  0
   -0.2028   -3.6690   -1.0921 H   0  0  0  0  0  0  0  0  0  0  0  0
   -0.0843   -3.3142    0.6713 H   0  0  0  0  0  0  0  0  0  0  0  0
  1  2  2  0
  2  3  1  0
  3  4  1  0
  4  5  1  0
  2  6  1  0
  6  7  2  0
  7  8  1  0
  8  9  2  0
  9 10  1  0
 10 11  1  0
 11 12  1  0
 12 13  1  0
 10 14  2  0
  9 15  1  0
 15 16  2  0
 16 17  1  0
 17 18  1  0
 18 19  1  0
 19 20  1  0
 16  6  1  0
 20 17  1  0
  4 21  1  0
  4 22  1  0
  5 23  1  0
  5 24  1  0
  5 25  1  0
  7 26  1  0
  8 27  1  0
 12 28  1  0
 12 29  1  0
 13 30  1  0
 13 31  1  0
 13 32  1  0
 15 33  1  0
 18 34  1  0
 18 35  1  0
 19 36  1  0
 19 37  1  0
 20 38  1  0
 20 39  1  0
M  END
