
     RDKit          3D

 30 31  0  0  0  0  0  0  0  0999 V2000
    1.6645    0.1664   -1.8482 O   0  0  0  0  0  0  0  0  0  0  0  0
    1.2163    0.7013   -0.8501 C   0  0  0  0  0  0  0  0  0  0  0  0
    1.8683    0.9428    0.3160 O   0  0  0  0  0  0  0  0  0  0  0  0
    3.2466    0.5466    0.3484 C   0  0  0  0  0  0  0  0  0  0  0  0
    3.3712   -0.9030    0.7767 C   0  0  0  0  0  0  0  0  0  0  0  0
   -0.1433    1.2511   -0.7238 C   0  0  0  0  0  0  0  0  0  0  0  0
   -0.2375    2.6562   -0.7384 C   0  0  0  0  0  0  0  0  0  0  0  0
   -1.4799    3.2791   -0.6733 C   0  0  0  0  0  0  0  0  0  0  0  0
   -2.6293    2.5020   -0.6048 C   0  0  0  0  0  0  0  0  0  0  0  0
   -2.5331    1.1056   -0.5918 C   0  0  0  0  0  0  0  0  0  0  0  0
   -1.2908    0.4406   -0.6362 C   0  0  0  0  0  0  0  0  0  0  0  0
   -1.2772   -0.9746   -0.6095 N   0  0  0  0  0  0  0  0  0  0  0  0
   -0.2354   -1.8543   -0.1592 C   0  0  0  0  0  0  0  0  0  0  0  0
   -1.2852   -2.9672   -0.1436 C   0  0  0  0  0  0  0  0  0  0  0  0
   -2.3106   -1.8352   -0.0980 C   0  0  0  0  0  0  0  0  0  0  0  0
    3.7451    1.1897    1.0812 H   0  0  0  0  0  0  0  0  0  0  0  0
    3.7345    0.7220   -0.6173 H   0  0  0  0  0  0  0  0  0  0  0  0
    4.4219   -1.1850    0.8881 H   0  0  0  0  0  0  0  0  0  0  0  0
    2.9099   -1.5696    0.0419 H   0  0  0  0  0  0  0  0  0  0  0  0
    2.8564   -1.0700    1.7284 H   0  0  0  0  0  0  0  0  0  0  0  0
    0.6628    3.2624   -0.8111 H   0  0  0  0  0  0  0  0  0  0  0  0
   -1.5511    4.3634   -0.6879 H   0  0  0  0  0  0  0  0  0  0  0  0
   -3.6068    2.9765   -0.5664 H   0  0  0  0  0  0  0  0  0  0  0  0
   -3.4566    0.5329   -0.5499 H   0  0  0  0  0  0  0  0  0  0  0  0
    0.1589   -1.5789    0.8240 H   0  0  0  0  0  0  0  0  0  0  0  0
    0.5677   -2.0067   -0.8817 H   0  0  0  0  0  0  0  0  0  0  0  0
   -1.2656   -3.6277    0.7267 H   0  0  0  0  0  0  0  0  0  0  0  0
   -1.3185   -3.5687   -1.0589 H   0  0  0  0  0  0  0  0  0  0  0  0
   -3.1629   -1.9455   -0.7724 H   0  0  0  0  0  0  0  0  0  0  0  0
   -2.6402   -1.5522    0.9072 H   0  0  0  0  0  0  0  0  0  0  0  0
  1  2  2  0
  2  3  1  0
  3  4  1  0
  4  5  1  0
  2  6  1  0
  6  7  2  0
  7  8  1  0
  8  9  2  0
  9 10  1  0
 10 11  2  0
 11 12  1  0
 12 13  1  0
 13 14  1  0
 14 15  1  0
 11  6  1  0
 15 12  1  0
  4 16  1  0
  4 17  1  0
  5 18  1  0
  5 19  1  0
  5 20  1  0
  7 21  1  0
  8 22  1  0
  9 23  1  0
 10 24  1  0
 13 25  1  0
 13 26  1  0
 14 27  1  0
 14 28  1  0
 15 29  1  0
 15 30  1  0
M  END
