
     RDKit          3D

 32 34  0  0  0  0  0  0  0  0999 V2000
   -2.7435   -1.3105    1.4056 O   0  0  0  0  0  0  0  0  0  0  0  0
   -3.1122   -0.5281    0.5387 C   0  0  0  0  0  0  0  0  0  0  0  0
   -2.2817    0.3639   -0.0787 O   0  0  0  0  0  0  0  0  0  0  0  0
   -0.9167    0.3653    0.3725 C   0  0  0  0  0  0  0  0  0  0  0  0
   -0.1252   -0.7925   -0.2388 C   0  0  0  0  0  0  0  0  0  0  0  0
    1.3060   -0.6105   -0.0917 N   0  0  0  0  0  0  0  0  0  0  0  0
    2.0846    0.0576   -0.9967 C   0  0  0  0  0  0  0  0  0  0  0  0
    1.7617    0.5797   -2.0462 O   0  0  0  0  0  0  0  0  0  0  0  0
    3.4395    0.0720   -0.4483 C   0  0  0  0  0  0  0  0  0  0  0  0
    4.6099    0.5922   -0.9646 C   0  0  0  0  0  0  0  0  0  0  0  0
    5.7645    0.4599   -0.1864 C   0  0  0  0  0  0  0  0  0  0  0  0
    5.7205   -0.1766    1.0720 C   0  0  0  0  0  0  0  0  0  0  0  0
    4.5212   -0.6919    1.5743 C   0  0  0  0  0  0  0  0  0  0  0  0
    3.3963   -0.5521    0.7855 C   0  0  0  0  0  0  0  0  0  0  0  0
    2.0140   -0.9641    1.0237 C   0  0  0  0  0  0  0  0  0  0  0  0
    1.6229   -1.4885    2.0477 O   0  0  0  0  0  0  0  0  0  0  0  0
   -4.4529   -0.3996   -0.0009 C   0  0  0  0  0  0  0  0  0  0  0  0
   -4.9333    0.4550   -0.9788 C   0  0  0  0  0  0  0  0  0  0  0  0
   -6.3241    0.2720   -1.2331 C   0  0  0  0  0  0  0  0  0  0  0  0
   -6.8647   -0.7162   -0.4427 C   0  0  0  0  0  0  0  0  0  0  0  0
   -5.7008   -1.4149    0.5959 S   0  0  0  0  0  0  0  0  0  0  0  0
   -0.8668    0.3583    1.4683 H   0  0  0  0  0  0  0  0  0  0  0  0
   -0.4901    1.3222    0.0504 H   0  0  0  0  0  0  0  0  0  0  0  0
   -0.3625   -0.8784   -1.3056 H   0  0  0  0  0  0  0  0  0  0  0  0
   -0.4105   -1.7374    0.2360 H   0  0  0  0  0  0  0  0  0  0  0  0
    4.6287    1.0826   -1.9325 H   0  0  0  0  0  0  0  0  0  0  0  0
    6.7106    0.8541   -0.5539 H   0  0  0  0  0  0  0  0  0  0  0  0
    6.6331   -0.2653    1.6594 H   0  0  0  0  0  0  0  0  0  0  0  0
    4.4719   -1.1806    2.5421 H   0  0  0  0  0  0  0  0  0  0  0  0
   -4.3144    1.1823   -1.4920 H   0  0  0  0  0  0  0  0  0  0  0  0
   -6.8975    0.8365   -1.9585 H   0  0  0  0  0  0  0  0  0  0  0  0
   -7.8886   -1.0642   -0.4229 H   0  0  0  0  0  0  0  0  0  0  0  0
  1  2  2  0
  2  3  1  0
  3  4  1  0
  4  5  1  0
  5  6  1  0
  6  7  1  0
  7  8  2  0
  7  9  1  0
  9 10  2  0
 10 11  1  0
 11 12  2  0
 12 13  1  0
 13 14  2  0
 14 15  1  0
 15 16  2  0
  2 17  1  0
 17 18  2  0
 18 19  1  0
 19 20  2  0
 20 21  1  0
 15  6  1  0
 21 17  1  0
 14  9  1  0
  4 22  1  0
  4 23  1  0
  5 24  1  0
  5 25  1  0
 10 26  1  0
 11 27  1  0
 12 28  1  0
 13 29  1  0
 18 30  1  0
 19 31  1  0
 20 32  1  0
M  END
