
     RDKit          3D

 22 23  0  0  0  0  0  0  0  0999 V2000
   -1.8764    3.6142   -0.5728 O   0  0  0  0  0  0  0  0  0  0  0  0
   -1.4064    2.5017   -0.3628 C   0  0  0  0  0  0  0  0  0  0  0  0
   -2.2733    1.3869    0.0494 C   0  0  0  0  0  0  0  0  0  0  0  0
   -1.8208    0.1485    0.2946 C   0  0  0  0  0  0  0  0  0  0  0  0
   -2.7466   -0.9554    0.7118 C   0  0  0  0  0  0  0  0  0  0  0  0
   -0.3824   -0.1089    0.1455 C   0  0  0  0  0  0  0  0  0  0  0  0
    0.2083   -1.3593    0.3518 C   0  0  0  0  0  0  0  0  0  0  0  0
    1.5908   -1.5329    0.1905 C   0  0  0  0  0  0  0  0  0  0  0  0
    2.4196   -0.4578   -0.1390 C   0  0  0  0  0  0  0  0  0  0  0  0
    3.7740   -0.6701   -0.4144 N   0  0  0  0  0  0  0  0  0  0  0  0
    1.8303    0.7764   -0.4041 C   0  0  0  0  0  0  0  0  0  0  0  0
    0.4522    0.9404   -0.2402 C   0  0  0  0  0  0  0  0  0  0  0  0
   -0.0568    2.2290   -0.4958 O   0  0  0  0  0  0  0  0  0  0  0  0
   -3.3227    1.6438    0.1408 H   0  0  0  0  0  0  0  0  0  0  0  0
   -3.7837   -0.6099    0.7884 H   0  0  0  0  0  0  0  0  0  0  0  0
   -2.4640   -1.3500    1.6936 H   0  0  0  0  0  0  0  0  0  0  0  0
   -2.7309   -1.7727   -0.0171 H   0  0  0  0  0  0  0  0  0  0  0  0
   -0.3861   -2.2262    0.6269 H   0  0  0  0  0  0  0  0  0  0  0  0
    2.0147   -2.5252    0.3261 H   0  0  0  0  0  0  0  0  0  0  0  0
    4.1818   -1.4558    0.0825 H   0  0  0  0  0  0  0  0  0  0  0  0
    4.3465    0.1662   -0.3484 H   0  0  0  0  0  0  0  0  0  0  0  0
    2.4319    1.6171   -0.7366 H   0  0  0  0  0  0  0  0  0  0  0  0
  1  2  2  0
  2  3  1  0
  3  4  2  0
  4  5  1  0
  4  6  1  0
  6  7  2  0
  7  8  1  0
  8  9  2  0
  9 10  1  0
  9 11  1  0
 11 12  2  0
 12 13  1  0
 13  2  1  0
 12  6  1  0
  3 14  1  0
  5 15  1  0
  5 16  1  0
  5 17  1  0
  7 18  1  0
  8 19  1  0
 10 20  1  0
 10 21  1  0
 11 22  1  0
M  END
