
     RDKit          3D

 35 39  0  0  0  0  0  0  0  0999 V2000
   -5.7560   -2.0878    1.6855 O   0  0  0  0  0  0  0  0  0  0  0  0
   -5.3236   -1.3244    0.8324 C   0  0  0  0  0  0  0  0  0  0  0  0
   -6.2451   -0.6621   -0.1116 C   0  0  0  0  0  0  0  0  0  0  0  0
   -5.8042    0.1756   -1.0531 C   0  0  0  0  0  0  0  0  0  0  0  0
   -4.3697    0.4880   -1.2045 C   0  0  0  0  0  0  0  0  0  0  0  0
   -3.9924    1.2599   -2.0765 O   0  0  0  0  0  0  0  0  0  0  0  0
   -3.4214   -0.1582   -0.2757 C   0  0  0  0  0  0  0  0  0  0  0  0
   -2.0486    0.1167   -0.3914 C   0  0  0  0  0  0  0  0  0  0  0  0
   -1.1174   -0.4788    0.4735 C   0  0  0  0  0  0  0  0  0  0  0  0
    0.3262   -0.2047    0.3697 C   0  0  0  0  0  0  0  0  0  0  0  0
    1.3934   -0.6855    1.1177 C   0  0  0  0  0  0  0  0  0  0  0  0
    2.6016   -0.1207    0.6263 C   0  0  0  0  0  0  0  0  0  0  0  0
    3.9575   -0.2376    0.9805 C   0  0  0  0  0  0  0  0  0  0  0  0
    4.9379    0.4744    0.2757 C   0  0  0  0  0  0  0  0  0  0  0  0
    6.3498    0.6073    0.3374 C   0  0  0  0  0  0  0  0  0  0  0  0
    6.7021    1.4836   -0.6644 C   0  0  0  0  0  0  0  0  0  0  0  0
    5.6021    1.9035   -1.3440 O   0  0  0  0  0  0  0  0  0  0  0  0
    4.5313    1.2898   -0.7720 C   0  0  0  0  0  0  0  0  0  0  0  0
    3.2048    1.4295   -1.1492 C   0  0  0  0  0  0  0  0  0  0  0  0
    2.2503    0.7107   -0.4321 C   0  0  0  0  0  0  0  0  0  0  0  0
    0.8846    0.6446   -0.5671 N   0  0  0  0  0  0  0  0  0  0  0  0
   -1.6045   -1.3568    1.4563 C   0  0  0  0  0  0  0  0  0  0  0  0
   -2.9719   -1.6332    1.5748 C   0  0  0  0  0  0  0  0  0  0  0  0
   -3.8826   -1.0312    0.7052 C   0  0  0  0  0  0  0  0  0  0  0  0
   -7.2979   -0.8939    0.0025 H   0  0  0  0  0  0  0  0  0  0  0  0
   -6.4787    0.6633   -1.7476 H   0  0  0  0  0  0  0  0  0  0  0  0
   -1.7306    0.8041   -1.1709 H   0  0  0  0  0  0  0  0  0  0  0  0
    1.3256   -1.3798    1.9447 H   0  0  0  0  0  0  0  0  0  0  0  0
    4.2452   -0.8836    1.8052 H   0  0  0  0  0  0  0  0  0  0  0  0
    7.0267    0.1241    1.0270 H   0  0  0  0  0  0  0  0  0  0  0  0
    7.6434    1.8902   -1.0069 H   0  0  0  0  0  0  0  0  0  0  0  0
    2.9325    2.0781   -1.9746 H   0  0  0  0  0  0  0  0  0  0  0  0
    0.3720    1.1587   -1.2680 H   0  0  0  0  0  0  0  0  0  0  0  0
   -0.9255   -1.8450    2.1520 H   0  0  0  0  0  0  0  0  0  0  0  0
   -3.3169   -2.3185    2.3474 H   0  0  0  0  0  0  0  0  0  0  0  0
  1  2  2  0
  2  3  1  0
  3  4  2  0
  4  5  1  0
  5  6  2  0
  5  7  1  0
  7  8  2  0
  8  9  1  0
  9 10  1  0
 10 11  2  0
 11 12  1  0
 12 13  2  0
 13 14  1  0
 14 15  1  0
 15 16  2  0
 16 17  1  0
 17 18  1  0
 18 19  1  0
 19 20  2  0
 20 21  1  0
  9 22  2  0
 22 23  1  0
 23 24  2  0
 24  2  1  0
 24  7  1  0
 21 10  1  0
 20 12  1  0
 18 14  2  0
  3 25  1  0
  4 26  1  0
  8 27  1  0
 11 28  1  0
 13 29  1  0
 15 30  1  0
 16 31  1  0
 19 32  1  0
 21 33  1  0
 22 34  1  0
 23 35  1  0
M  END
