
     RDKit          3D

 31 34  0  0  0  0  0  0  0  0999 V2000
    5.0977   -2.0446   -1.2811 O   0  0  0  0  0  0  0  0  0  0  0  0
    4.6907   -1.0136   -0.7622 C   0  0  0  0  0  0  0  0  0  0  0  0
    5.6421    0.0167   -0.3033 C   0  0  0  0  0  0  0  0  0  0  0  0
    5.2271    1.1505    0.2660 C   0  0  0  0  0  0  0  0  0  0  0  0
    3.7939    1.4402    0.4696 C   0  0  0  0  0  0  0  0  0  0  0  0
    3.4473    2.4896    0.9948 O   0  0  0  0  0  0  0  0  0  0  0  0
    2.8154    0.4285    0.0209 C   0  0  0  0  0  0  0  0  0  0  0  0
    1.4413    0.6665    0.1969 C   0  0  0  0  0  0  0  0  0  0  0  0
    0.4761   -0.2709   -0.2162 C   0  0  0  0  0  0  0  0  0  0  0  0
   -0.9828   -0.0493   -0.0445 C   0  0  0  0  0  0  0  0  0  0  0  0
   -2.0388   -0.8740   -0.3990 C   0  0  0  0  0  0  0  0  0  0  0  0
   -3.3364   -0.3447   -0.0847 C   0  0  0  0  0  0  0  0  0  0  0  0
   -4.6280   -0.8866   -0.2914 C   0  0  0  0  0  0  0  0  0  0  0  0
   -5.7647   -0.1751    0.1043 C   0  0  0  0  0  0  0  0  0  0  0  0
   -5.6372    1.0701    0.7038 C   0  0  0  0  0  0  0  0  0  0  0  0
   -4.3750    1.6278    0.9195 C   0  0  0  0  0  0  0  0  0  0  0  0
   -3.2338    0.9060    0.5186 C   0  0  0  0  0  0  0  0  0  0  0  0
   -1.5947    1.3845    0.6792 S   0  0  0  0  0  0  0  0  0  0  0  0
    0.9460   -1.4562   -0.8129 C   0  0  0  0  0  0  0  0  0  0  0  0
    2.3141   -1.6981   -0.9905 C   0  0  0  0  0  0  0  0  0  0  0  0
    3.2505   -0.7523   -0.5720 C   0  0  0  0  0  0  0  0  0  0  0  0
    6.6938   -0.1982   -0.4539 H   0  0  0  0  0  0  0  0  0  0  0  0
    5.9228    1.9099    0.6044 H   0  0  0  0  0  0  0  0  0  0  0  0
    1.1452    1.6037    0.6654 H   0  0  0  0  0  0  0  0  0  0  0  0
   -1.9137   -1.8386   -0.8732 H   0  0  0  0  0  0  0  0  0  0  0  0
   -4.7402   -1.8610   -0.7601 H   0  0  0  0  0  0  0  0  0  0  0  0
   -6.7517   -0.6009   -0.0594 H   0  0  0  0  0  0  0  0  0  0  0  0
   -6.5255    1.6182    1.0092 H   0  0  0  0  0  0  0  0  0  0  0  0
   -4.2768    2.6025    1.3889 H   0  0  0  0  0  0  0  0  0  0  0  0
    0.2555   -2.2234   -1.1554 H   0  0  0  0  0  0  0  0  0  0  0  0
    2.6398   -2.6271   -1.4563 H   0  0  0  0  0  0  0  0  0  0  0  0
  1  2  2  0
  2  3  1  0
  3  4  2  0
  4  5  1  0
  5  6  2  0
  5  7  1  0
  7  8  2  0
  8  9  1  0
  9 10  1  0
 10 11  2  0
 11 12  1  0
 12 13  2  0
 13 14  1  0
 14 15  2  0
 15 16  1  0
 16 17  2  0
 17 18  1  0
  9 19  2  0
 19 20  1  0
 20 21  2  0
 21  2  1  0
 21  7  1  0
 18 10  1  0
 17 12  1  0
  3 22  1  0
  4 23  1  0
  8 24  1  0
 11 25  1  0
 13 26  1  0
 14 27  1  0
 15 28  1  0
 16 29  1  0
 19 30  1  0
 20 31  1  0
M  END
