
     RDKit          3D

 39 43  0  0  0  0  0  0  0  0999 V2000
    6.6461   -1.6498   -0.6222 O   0  0  0  0  0  0  0  0  0  0  0  0
    6.0626   -0.7793    0.0100 C   0  0  0  0  0  0  0  0  0  0  0  0
    6.8266    0.2164    0.7864 C   0  0  0  0  0  0  0  0  0  0  0  0
    6.2193    1.1741    1.4907 C   0  0  0  0  0  0  0  0  0  0  0  0
    4.7487    1.2940    1.5343 C   0  0  0  0  0  0  0  0  0  0  0  0
    4.2225    2.1805    2.1936 O   0  0  0  0  0  0  0  0  0  0  0  0
    3.9549    0.3167    0.7630 C   0  0  0  0  0  0  0  0  0  0  0  0
    2.5544    0.3991    0.7748 C   0  0  0  0  0  0  0  0  0  0  0  0
    1.7704   -0.5178    0.0531 C   0  0  0  0  0  0  0  0  0  0  0  0
    0.3007   -0.4328    0.0645 C   0  0  0  0  0  0  0  0  0  0  0  0
   -0.4870   -1.5407    0.3808 C   0  0  0  0  0  0  0  0  0  0  0  0
   -1.8814   -1.4441    0.3878 C   0  0  0  0  0  0  0  0  0  0  0  0
   -2.5441   -0.2325    0.0762 C   0  0  0  0  0  0  0  0  0  0  0  0
   -1.7450    0.8879   -0.2444 C   0  0  0  0  0  0  0  0  0  0  0  0
   -0.3604    0.7667   -0.2426 C   0  0  0  0  0  0  0  0  0  0  0  0
   -2.2566    2.0844   -0.5576 N   0  0  0  0  0  0  0  0  0  0  0  0
   -3.5994    2.2175   -0.5620 C   0  0  0  0  0  0  0  0  0  0  0  0
   -4.4981    1.2003   -0.2656 C   0  0  0  0  0  0  0  0  0  0  0  0
   -5.8874    1.4240   -0.2935 C   0  0  0  0  0  0  0  0  0  0  0  0
   -6.7780    0.3971    0.0050 C   0  0  0  0  0  0  0  0  0  0  0  0
   -6.2882   -0.8592    0.3332 C   0  0  0  0  0  0  0  0  0  0  0  0
   -4.9083   -1.0868    0.3624 C   0  0  0  0  0  0  0  0  0  0  0  0
   -3.9704   -0.0653    0.0643 C   0  0  0  0  0  0  0  0  0  0  0  0
    2.4313   -1.5182   -0.6811 C   0  0  0  0  0  0  0  0  0  0  0  0
    3.8271   -1.6032   -0.6955 C   0  0  0  0  0  0  0  0  0  0  0  0
    4.5896   -0.6830    0.0292 C   0  0  0  0  0  0  0  0  0  0  0  0
    7.9063    0.1261    0.7534 H   0  0  0  0  0  0  0  0  0  0  0  0
    6.7775    1.9065    2.0626 H   0  0  0  0  0  0  0  0  0  0  0  0
    2.0718    1.1812    1.3615 H   0  0  0  0  0  0  0  0  0  0  0  0
   -0.0250   -2.4917    0.6390 H   0  0  0  0  0  0  0  0  0  0  0  0
   -2.4426   -2.3376    0.6457 H   0  0  0  0  0  0  0  0  0  0  0  0
    0.2216    1.6500   -0.5036 H   0  0  0  0  0  0  0  0  0  0  0  0
   -3.9445    3.2150   -0.8236 H   0  0  0  0  0  0  0  0  0  0  0  0
   -6.2831    2.4050   -0.5493 H   0  0  0  0  0  0  0  0  0  0  0  0
   -7.8494    0.5780   -0.0185 H   0  0  0  0  0  0  0  0  0  0  0  0
   -6.9762   -1.6677    0.5682 H   0  0  0  0  0  0  0  0  0  0  0  0
   -4.5769   -2.0875    0.6256 H   0  0  0  0  0  0  0  0  0  0  0  0
    1.8580   -2.2378   -1.2645 H   0  0  0  0  0  0  0  0  0  0  0  0
    4.3128   -2.3858   -1.2762 H   0  0  0  0  0  0  0  0  0  0  0  0
  1  2  2  0
  2  3  1  0
  3  4  2  0
  4  5  1  0
  5  6  2  0
  5  7  1  0
  7  8  2  0
  8  9  1  0
  9 10  1  0
 10 11  2  0
 11 12  1  0
 12 13  2  0
 13 14  1  0
 14 15  2  0
 14 16  1  0
 16 17  2  0
 17 18  1  0
 18 19  2  0
 19 20  1  0
 20 21  2  0
 21 22  1  0
 22 23  2  0
  9 24  2  0
 24 25  1  0
 25 26  2  0
 26  2  1  0
 26  7  1  0
 15 10  1  0
 23 18  1  0
 23 13  1  0
  3 27  1  0
  4 28  1  0
  8 29  1  0
 11 30  1  0
 12 31  1  0
 15 32  1  0
 17 33  1  0
 19 34  1  0
 20 35  1  0
 21 36  1  0
 22 37  1  0
 24 38  1  0
 25 39  1  0
M  END
