
     RDKit          3D

 37 41  0  0  0  0  0  0  0  0999 V2000
    4.5996    2.0505   -1.7926 O   0  0  0  0  0  0  0  0  0  0  0  0
    4.3007    1.3280   -0.8512 C   0  0  0  0  0  0  0  0  0  0  0  0
    5.2514    1.1186    0.2580 C   0  0  0  0  0  0  0  0  0  0  0  0
    4.9547    0.3385    1.2998 C   0  0  0  0  0  0  0  0  0  0  0  0
    3.6591   -0.3610    1.4042 C   0  0  0  0  0  0  0  0  0  0  0  0
    3.4191   -1.0718    2.3709 O   0  0  0  0  0  0  0  0  0  0  0  0
    2.6842   -0.1706    0.3120 C   0  0  0  0  0  0  0  0  0  0  0  0
    1.4409   -0.8147    0.3751 C   0  0  0  0  0  0  0  0  0  0  0  0
    0.4984   -0.6493   -0.6517 C   0  0  0  0  0  0  0  0  0  0  0  0
   -0.7939   -1.3300   -0.5935 C   0  0  0  0  0  0  0  0  0  0  0  0
   -0.9158   -2.6692   -1.0150 C   0  0  0  0  0  0  0  0  0  0  0  0
   -2.1386   -3.3320   -0.9744 C   0  0  0  0  0  0  0  0  0  0  0  0
   -3.2843   -2.6856   -0.5130 C   0  0  0  0  0  0  0  0  0  0  0  0
   -3.1595   -1.3563   -0.0917 C   0  0  0  0  0  0  0  0  0  0  0  0
   -4.1206   -0.5060    0.4013 N   0  0  0  0  0  0  0  0  0  0  0  0
   -3.5850    0.7190    0.7061 C   0  0  0  0  0  0  0  0  0  0  0  0
   -4.1887    1.8578    1.2241 C   0  0  0  0  0  0  0  0  0  0  0  0
   -3.4389    2.9592    1.4454 N   0  0  0  0  0  0  0  0  0  0  0  0
   -2.1209    2.9183    1.1588 C   0  0  0  0  0  0  0  0  0  0  0  0
   -1.4578    1.8153    0.6410 C   0  0  0  0  0  0  0  0  0  0  0  0
   -2.2258    0.6633    0.4008 C   0  0  0  0  0  0  0  0  0  0  0  0
   -1.9498   -0.6547   -0.1137 C   0  0  0  0  0  0  0  0  0  0  0  0
    0.8284    0.1670   -1.7453 C   0  0  0  0  0  0  0  0  0  0  0  0
    2.0664    0.8122   -1.8091 C   0  0  0  0  0  0  0  0  0  0  0  0
    2.9953    0.6424   -0.7771 C   0  0  0  0  0  0  0  0  0  0  0  0
    6.2024    1.6329    0.1794 H   0  0  0  0  0  0  0  0  0  0  0  0
    5.6512    0.1827    2.1158 H   0  0  0  0  0  0  0  0  0  0  0  0
    1.2015   -1.4474    1.2300 H   0  0  0  0  0  0  0  0  0  0  0  0
   -0.0396   -3.2004   -1.3830 H   0  0  0  0  0  0  0  0  0  0  0  0
   -2.2018   -4.3657   -1.3069 H   0  0  0  0  0  0  0  0  0  0  0  0
   -4.2376   -3.2042   -0.4823 H   0  0  0  0  0  0  0  0  0  0  0  0
   -5.0912   -0.7548    0.5256 H   0  0  0  0  0  0  0  0  0  0  0  0
   -5.2419    1.9223    1.4679 H   0  0  0  0  0  0  0  0  0  0  0  0
   -1.5801    3.8383    1.3651 H   0  0  0  0  0  0  0  0  0  0  0  0
   -0.3958    1.8588    0.4397 H   0  0  0  0  0  0  0  0  0  0  0  0
    0.1132    0.3054   -2.5556 H   0  0  0  0  0  0  0  0  0  0  0  0
    2.3009    1.4432   -2.6649 H   0  0  0  0  0  0  0  0  0  0  0  0
  1  2  2  0
  2  3  1  0
  3  4  2  0
  4  5  1  0
  5  6  2  0
  5  7  1  0
  7  8  2  0
  8  9  1  0
  9 10  1  0
 10 11  2  0
 11 12  1  0
 12 13  2  0
 13 14  1  0
 14 15  1  0
 15 16  1  0
 16 17  2  0
 17 18  1  0
 18 19  2  0
 19 20  1  0
 20 21  2  0
 21 22  1  0
  9 23  2  0
 23 24  1  0
 24 25  2  0
 25  2  1  0
 25  7  1  0
 22 10  1  0
 22 14  2  0
 21 16  1  0
  3 26  1  0
  4 27  1  0
  8 28  1  0
 11 29  1  0
 12 30  1  0
 13 31  1  0
 15 32  1  0
 17 33  1  0
 19 34  1  0
 20 35  1  0
 23 36  1  0
 24 37  1  0
M  END
