
     RDKit          3D

 37 41  0  0  0  0  0  0  0  0999 V2000
    4.3394    2.8387   -1.1970 O   0  0  0  0  0  0  0  0  0  0  0  0
    4.1306    1.8765   -0.4702 C   0  0  0  0  0  0  0  0  0  0  0  0
    5.0943    1.5200    0.5892 C   0  0  0  0  0  0  0  0  0  0  0  0
    4.8941    0.4783    1.3996 C   0  0  0  0  0  0  0  0  0  0  0  0
    3.6979   -0.3787    1.2840 C   0  0  0  0  0  0  0  0  0  0  0  0
    3.5449   -1.3288    2.0398 O   0  0  0  0  0  0  0  0  0  0  0  0
    2.7127   -0.0479    0.2355 C   0  0  0  0  0  0  0  0  0  0  0  0
    1.5613   -0.8353    0.0957 C   0  0  0  0  0  0  0  0  0  0  0  0
    0.6104   -0.5409   -0.8937 C   0  0  0  0  0  0  0  0  0  0  0  0
   -0.5865   -1.3651   -1.0453 C   0  0  0  0  0  0  0  0  0  0  0  0
   -0.5339   -2.6104   -1.7078 C   0  0  0  0  0  0  0  0  0  0  0  0
   -1.6725   -3.4020   -1.8684 C   0  0  0  0  0  0  0  0  0  0  0  0
   -2.9089   -2.9844   -1.3753 C   0  0  0  0  0  0  0  0  0  0  0  0
   -2.9407   -1.7551   -0.7194 C   0  0  0  0  0  0  0  0  0  0  0  0
   -4.0576   -1.2004   -0.1777 O   0  0  0  0  0  0  0  0  0  0  0  0
   -3.6870   -0.0162    0.3759 C   0  0  0  0  0  0  0  0  0  0  0  0
   -4.5456    0.8598    1.0376 C   0  0  0  0  0  0  0  0  0  0  0  0
   -3.9772    2.0307    1.5466 C   0  0  0  0  0  0  0  0  0  0  0  0
   -2.6151    2.2940    1.3930 C   0  0  0  0  0  0  0  0  0  0  0  0
   -1.7764    1.3922    0.7214 C   0  0  0  0  0  0  0  0  0  0  0  0
   -2.3255    0.2052    0.1946 C   0  0  0  0  0  0  0  0  0  0  0  0
   -1.8336   -0.9302   -0.5305 C   0  0  0  0  0  0  0  0  0  0  0  0
    0.8400    0.5522   -1.7446 C   0  0  0  0  0  0  0  0  0  0  0  0
    1.9860    1.3400   -1.6056 C   0  0  0  0  0  0  0  0  0  0  0  0
    2.9233    1.0386   -0.6122 C   0  0  0  0  0  0  0  0  0  0  0  0
    5.9722    2.1505    0.6722 H   0  0  0  0  0  0  0  0  0  0  0  0
    5.6004    0.2140    2.1784 H   0  0  0  0  0  0  0  0  0  0  0  0
    1.4011   -1.6813    0.7645 H   0  0  0  0  0  0  0  0  0  0  0  0
    0.4142   -2.9661   -2.1095 H   0  0  0  0  0  0  0  0  0  0  0  0
   -1.5966   -4.3562   -2.3856 H   0  0  0  0  0  0  0  0  0  0  0  0
   -3.8050   -3.5827   -1.4898 H   0  0  0  0  0  0  0  0  0  0  0  0
   -5.5996    0.6365    1.1497 H   0  0  0  0  0  0  0  0  0  0  0  0
   -4.6071    2.7453    2.0723 H   0  0  0  0  0  0  0  0  0  0  0  0
   -2.1957    3.2114    1.8011 H   0  0  0  0  0  0  0  0  0  0  0  0
   -0.7195    1.6154    0.6181 H   0  0  0  0  0  0  0  0  0  0  0  0
    0.1185    0.7971   -2.5236 H   0  0  0  0  0  0  0  0  0  0  0  0
    2.1426    2.1850   -2.2743 H   0  0  0  0  0  0  0  0  0  0  0  0
  1  2  2  0
  2  3  1  0
  3  4  2  0
  4  5  1  0
  5  6  2  0
  5  7  1  0
  7  8  2  0
  8  9  1  0
  9 10  1  0
 10 11  2  0
 11 12  1  0
 12 13  2  0
 13 14  1  0
 14 15  1  0
 15 16  1  0
 16 17  2  0
 17 18  1  0
 18 19  2  0
 19 20  1  0
 20 21  2  0
 21 22  1  0
  9 23  2  0
 23 24  1  0
 24 25  2  0
 25  2  1  0
 25  7  1  0
 22 10  1  0
 22 14  2  0
 21 16  1  0
  3 26  1  0
  4 27  1  0
  8 28  1  0
 11 29  1  0
 12 30  1  0
 13 31  1  0
 17 32  1  0
 18 33  1  0
 19 34  1  0
 20 35  1  0
 23 36  1  0
 24 37  1  0
M  END
