
     RDKit          3D

 25 27  0  0  0  0  0  0  0  0999 V2000
    3.7016    1.6720    1.2694 O   0  0  0  0  0  0  0  0  0  0  0  0
    3.2197    0.7993    0.5596 C   0  0  0  0  0  0  0  0  0  0  0  0
    4.0968   -0.1066   -0.2074 C   0  0  0  0  0  0  0  0  0  0  0  0
    3.6016   -1.0696   -0.9882 C   0  0  0  0  0  0  0  0  0  0  0  0
    2.1483   -1.2855   -1.1299 C   0  0  0  0  0  0  0  0  0  0  0  0
    1.7243   -2.1807   -1.8486 O   0  0  0  0  0  0  0  0  0  0  0  0
    1.2429   -0.3930   -0.3790 C   0  0  0  0  0  0  0  0  0  0  0  0
   -0.1449   -0.5635   -0.4923 C   0  0  0  0  0  0  0  0  0  0  0  0
   -1.0264    0.2694    0.2125 C   0  0  0  0  0  0  0  0  0  0  0  0
   -2.4672    0.1067    0.1034 C   0  0  0  0  0  0  0  0  0  0  0  0
   -3.5228    1.0272    0.3106 C   0  0  0  0  0  0  0  0  0  0  0  0
   -4.7289    0.4858    0.1220 N   0  0  0  0  0  0  0  0  0  0  0  0
   -4.4540   -0.7854   -0.2075 N   0  0  0  0  0  0  0  0  0  0  0  0
   -3.1173   -1.0638   -0.2295 C   0  0  0  0  0  0  0  0  0  0  0  0
   -0.4915    1.2777    1.0285 C   0  0  0  0  0  0  0  0  0  0  0  0
    0.8924    1.4495    1.1416 C   0  0  0  0  0  0  0  0  0  0  0  0
    1.7607    0.6116    0.4358 C   0  0  0  0  0  0  0  0  0  0  0  0
    5.1637    0.0535   -0.1011 H   0  0  0  0  0  0  0  0  0  0  0  0
    4.2435   -1.7367   -1.5522 H   0  0  0  0  0  0  0  0  0  0  0  0
   -0.5278   -1.3457   -1.1458 H   0  0  0  0  0  0  0  0  0  0  0  0
   -3.4637    2.0722    0.5867 H   0  0  0  0  0  0  0  0  0  0  0  0
   -5.2292   -1.4111   -0.4017 H   0  0  0  0  0  0  0  0  0  0  0  0
   -2.7657   -2.0573   -0.4688 H   0  0  0  0  0  0  0  0  0  0  0  0
   -1.1425    1.9379    1.5987 H   0  0  0  0  0  0  0  0  0  0  0  0
    1.2863    2.2364    1.7832 H   0  0  0  0  0  0  0  0  0  0  0  0
  1  2  2  0
  2  3  1  0
  3  4  2  0
  4  5  1  0
  5  6  2  0
  5  7  1  0
  7  8  2  0
  8  9  1  0
  9 10  1  0
 10 11  1  0
 11 12  2  0
 12 13  1  0
 13 14  1  0
  9 15  2  0
 15 16  1  0
 16 17  2  0
 17  2  1  0
 17  7  1  0
 14 10  2  0
  3 18  1  0
  4 19  1  0
  8 20  1  0
 11 21  1  0
 13 22  1  0
 14 23  1  0
 15 24  1  0
 16 25  1  0
M  END
