
     RDKit          3D

 35 39  0  0  0  0  0  0  0  0999 V2000
    6.1125   -0.6920    0.9376 O   0  0  0  0  0  0  0  0  0  0  0  0
    5.3425   -0.2082    0.1187 C   0  0  0  0  0  0  0  0  0  0  0  0
    5.8430    0.2699   -1.1849 C   0  0  0  0  0  0  0  0  0  0  0  0
    5.0263    0.7945   -2.1016 C   0  0  0  0  0  0  0  0  0  0  0  0
    3.5754    0.9262   -1.8650 C   0  0  0  0  0  0  0  0  0  0  0  0
    2.8474    1.3959   -2.7293 O   0  0  0  0  0  0  0  0  0  0  0  0
    3.0450    0.4699   -0.5652 C   0  0  0  0  0  0  0  0  0  0  0  0
    1.6728    0.5914   -0.2974 C   0  0  0  0  0  0  0  0  0  0  0  0
    1.1319    0.1620    0.9275 C   0  0  0  0  0  0  0  0  0  0  0  0
   -0.3079    0.2875    1.2059 C   0  0  0  0  0  0  0  0  0  0  0  0
   -0.7846    0.8414    2.3937 C   0  0  0  0  0  0  0  0  0  0  0  0
   -2.0798    0.9966    2.7491 N   0  0  0  0  0  0  0  0  0  0  0  0
   -2.9597    0.5616    1.8241 C   0  0  0  0  0  0  0  0  0  0  0  0
   -4.6329    0.6786    2.1007 S   0  0  0  0  0  0  0  0  0  0  0  0
   -4.9871   -0.0232    0.5928 C   0  0  0  0  0  0  0  0  0  0  0  0
   -6.2675   -0.2106    0.2075 N   0  0  0  0  0  0  0  0  0  0  0  0
   -6.4013   -0.7743   -1.0089 C   0  0  0  0  0  0  0  0  0  0  0  0
   -5.3588   -1.1509   -1.8368 C   0  0  0  0  0  0  0  0  0  0  0  0
   -4.0523   -0.9413   -1.4018 C   0  0  0  0  0  0  0  0  0  0  0  0
   -3.8463   -0.3527   -0.1338 C   0  0  0  0  0  0  0  0  0  0  0  0
   -2.6505   -0.0075    0.5940 C   0  0  0  0  0  0  0  0  0  0  0  0
   -1.2756   -0.1441    0.2873 C   0  0  0  0  0  0  0  0  0  0  0  0
    2.0102   -0.3935    1.8752 C   0  0  0  0  0  0  0  0  0  0  0  0
    3.3793   -0.5134    1.6127 C   0  0  0  0  0  0  0  0  0  0  0  0
    3.8971   -0.0796    0.3893 C   0  0  0  0  0  0  0  0  0  0  0  0
    6.9088    0.1700   -1.3564 H   0  0  0  0  0  0  0  0  0  0  0  0
    5.3909    1.1448   -3.0606 H   0  0  0  0  0  0  0  0  0  0  0  0
    1.0248    1.0385   -1.0518 H   0  0  0  0  0  0  0  0  0  0  0  0
   -0.0882    1.2122    3.1450 H   0  0  0  0  0  0  0  0  0  0  0  0
   -7.4316   -0.9263   -1.3236 H   0  0  0  0  0  0  0  0  0  0  0  0
   -5.5579   -1.5993   -2.8043 H   0  0  0  0  0  0  0  0  0  0  0  0
   -3.2129   -1.2254   -2.0294 H   0  0  0  0  0  0  0  0  0  0  0  0
   -0.9814   -0.5944   -0.6572 H   0  0  0  0  0  0  0  0  0  0  0  0
    1.6331   -0.7549    2.8318 H   0  0  0  0  0  0  0  0  0  0  0  0
    4.0355   -0.9494    2.3648 H   0  0  0  0  0  0  0  0  0  0  0  0
  1  2  2  0
  2  3  1  0
  3  4  2  0
  4  5  1  0
  5  6  2  0
  5  7  1  0
  7  8  2  0
  8  9  1  0
  9 10  1  0
 10 11  2  0
 11 12  1  0
 12 13  2  0
 13 14  1  0
 14 15  1  0
 15 16  2  0
 16 17  1  0
 17 18  2  0
 18 19  1  0
 19 20  2  0
 20 21  1  0
 21 22  2  0
  9 23  2  0
 23 24  1  0
 24 25  2  0
 25  2  1  0
 25  7  1  0
 22 10  1  0
 21 13  1  0
 20 15  1  0
  3 26  1  0
  4 27  1  0
  8 28  1  0
 11 29  1  0
 17 30  1  0
 18 31  1  0
 19 32  1  0
 22 33  1  0
 23 34  1  0
 24 35  1  0
M  END
