
     RDKit          3D

 39 44  0  0  0  0  0  0  0  0999 V2000
    6.4203   -0.9436    0.2562 Si  0  0  0  0  0  4  0  0  0  0  0  0
    6.6672    0.6960   -0.7540 C   0  0  0  0  0  0  0  0  0  0  0  0
    5.4939    1.3294   -0.9751 C   0  0  0  0  0  0  0  0  0  0  0  0
    4.4041    0.6160   -0.4046 C   0  0  0  0  0  0  0  0  0  0  0  0
    3.0614    0.8897   -0.3888 O   0  0  0  0  0  0  0  0  0  0  0  0
    2.4964   -0.1380    0.2992 C   0  0  0  0  0  0  0  0  0  0  0  0
    3.4207   -1.0724    0.7329 C   0  0  0  0  0  0  0  0  0  0  0  0
    3.0803   -2.1779    1.4372 N   0  0  0  0  0  0  0  0  0  0  0  0
    1.7639   -2.3882    1.7383 C   0  0  0  0  0  0  0  0  0  0  0  0
    0.7179   -1.5267    1.3634 C   0  0  0  0  0  0  0  0  0  0  0  0
   -0.6937   -1.4788    1.5247 C   0  0  0  0  0  0  0  0  0  0  0  0
   -1.1693   -0.3371    0.8901 C   0  0  0  0  0  0  0  0  0  0  0  0
   -0.0755    0.3253    0.3688 N   0  0  0  0  0  0  0  0  0  0  0  0
    1.0374   -0.3963    0.6472 C   0  0  0  0  0  0  0  0  0  0  0  0
   -2.5300    0.1893    0.7743 C   0  0  0  0  0  0  0  0  0  0  0  0
   -3.1619    0.6137    1.9535 C   0  0  0  0  0  0  0  0  0  0  0  0
   -4.4400    1.1604    1.9154 C   0  0  0  0  0  0  0  0  0  0  0  0
   -5.1018    1.2883    0.6970 C   0  0  0  0  0  0  0  0  0  0  0  0
   -4.5026    0.8627   -0.4985 C   0  0  0  0  0  0  0  0  0  0  0  0
   -5.1913    0.9929   -1.7162 C   0  0  0  0  0  0  0  0  0  0  0  0
   -4.6220    0.5635   -2.9140 C   0  0  0  0  0  0  0  0  0  0  0  0
   -3.3572   -0.0085   -2.9097 C   0  0  0  0  0  0  0  0  0  0  0  0
   -2.6587   -0.1432   -1.7078 C   0  0  0  0  0  0  0  0  0  0  0  0
   -3.2026    0.2960   -0.4759 C   0  0  0  0  0  0  0  0  0  0  0  0
    4.6198   -0.5729    0.2752 C   0  0  0  0  0  0  0  0  0  0  0  0
    6.8382   -2.0947   -0.5831 H   0  0  0  0  0  0  0  0  0  0  0  0
    7.1237   -0.8190    1.5576 H   0  0  0  0  0  0  0  0  0  0  0  0
    7.6553    0.9956   -1.0641 H   0  0  0  0  0  0  0  0  0  0  0  0
    5.3705    2.2593   -1.5126 H   0  0  0  0  0  0  0  0  0  0  0  0
    1.5656   -3.2937    2.3049 H   0  0  0  0  0  0  0  0  0  0  0  0
   -1.3087   -2.2047    2.0415 H   0  0  0  0  0  0  0  0  0  0  0  0
   -0.1040    1.2006   -0.1383 H   0  0  0  0  0  0  0  0  0  0  0  0
   -2.6494    0.5300    2.9097 H   0  0  0  0  0  0  0  0  0  0  0  0
   -4.9188    1.4910    2.8333 H   0  0  0  0  0  0  0  0  0  0  0  0
   -6.1000    1.7214    0.6880 H   0  0  0  0  0  0  0  0  0  0  0  0
   -6.1875    1.4300   -1.7402 H   0  0  0  0  0  0  0  0  0  0  0  0
   -5.1705    0.6690   -3.8462 H   0  0  0  0  0  0  0  0  0  0  0  0
   -2.9121   -0.3572   -3.8379 H   0  0  0  0  0  0  0  0  0  0  0  0
   -1.6791   -0.6153   -1.7417 H   0  0  0  0  0  0  0  0  0  0  0  0
  1  2  1  0
  2  3  2  0
  3  4  1  0
  4  5  1  0
  5  6  1  0
  6  7  2  0
  7  8  1  0
  8  9  2  0
  9 10  1  0
 10 11  1  0
 11 12  2  0
 12 13  1  0
 13 14  1  0
 12 15  1  0
 15 16  2  0
 16 17  1  0
 17 18  2  0
 18 19  1  0
 19 20  2  0
 20 21  1  0
 21 22  2  0
 22 23  1  0
 23 24  2  0
  7 25  1  0
 25  1  1  0
 25  4  2  0
 14  6  1  0
 24 15  1  0
 14 10  2  0
 24 19  1  0
  1 26  1  0
  1 27  1  0
  2 28  1  0
  3 29  1  0
  9 30  1  0
 11 31  1  0
 13 32  1  0
 16 33  1  0
 17 34  1  0
 18 35  1  0
 20 36  1  0
 21 37  1  0
 22 38  1  0
 23 39  1  0
M  END
