
     RDKit          3D

 32 34  0  0  0  0  0  0  0  0999 V2000
    4.9657   -1.8941   -0.6298 O   0  0  0  0  0  0  0  0  0  0  0  0
    5.1985   -0.7645   -0.2405 C   0  0  0  0  0  0  0  0  0  0  0  0
    6.5435   -0.1676   -0.2147 C   0  0  0  0  0  0  0  0  0  0  0  0
    6.4608    0.9935    0.4422 C   0  0  0  0  0  0  0  0  0  0  0  0
    5.0604    1.1748    0.8568 C   0  0  0  0  0  0  0  0  0  0  0  0
    4.3772    0.1609    0.2918 N   0  0  0  0  0  0  0  0  0  0  0  0
    3.0737   -0.1430    0.6649 O   0  0  0  0  0  0  0  0  0  0  0  0
    2.1704    0.3061   -0.2436 C   0  0  0  0  0  0  0  0  0  0  0  0
    0.7755   -0.0149    0.1493 C   0  0  0  0  0  0  0  0  0  0  0  0
   -0.1841    0.3999   -0.6975 C   0  0  0  0  0  0  0  0  0  0  0  0
   -1.5869    0.1444   -0.4204 C   0  0  0  0  0  0  0  0  0  0  0  0
   -2.6065    0.5604   -1.2769 C   0  0  0  0  0  0  0  0  0  0  0  0
   -3.9458    0.2885   -0.9629 C   0  0  0  0  0  0  0  0  0  0  0  0
   -4.2723   -0.4005    0.2088 C   0  0  0  0  0  0  0  0  0  0  0  0
   -5.5332   -0.7252    0.6253 O   0  0  0  0  0  0  0  0  0  0  0  0
   -6.6128   -0.3258   -0.2098 C   0  0  0  0  0  0  0  0  0  0  0  0
   -3.2508   -0.8158    1.0642 C   0  0  0  0  0  0  0  0  0  0  0  0
   -1.9259   -0.5382    0.7385 C   0  0  0  0  0  0  0  0  0  0  0  0
   -0.9284   -0.9740    1.6269 O   0  0  0  0  0  0  0  0  0  0  0  0
    0.4269   -0.7453    1.3903 C   0  0  0  0  0  0  0  0  0  0  0  0
    1.2635   -1.1435    2.1917 O   0  0  0  0  0  0  0  0  0  0  0  0
    2.4612    0.9085   -1.2727 O   0  0  0  0  0  0  0  0  0  0  0  0
    4.6841    2.0574    1.6060 O   0  0  0  0  0  0  0  0  0  0  0  0
    7.4116   -0.6440   -0.6348 H   0  0  0  0  0  0  0  0  0  0  0  0
    7.2455    1.6881    0.6847 H   0  0  0  0  0  0  0  0  0  0  0  0
    0.0527    0.9371   -1.6129 H   0  0  0  0  0  0  0  0  0  0  0  0
   -2.3778    1.0981   -2.1944 H   0  0  0  0  0  0  0  0  0  0  0  0
   -4.7093    0.6291   -1.6553 H   0  0  0  0  0  0  0  0  0  0  0  0
   -6.5487   -0.8035   -1.1930 H   0  0  0  0  0  0  0  0  0  0  0  0
   -7.5419   -0.6591    0.2625 H   0  0  0  0  0  0  0  0  0  0  0  0
   -6.6581    0.7645   -0.3015 H   0  0  0  0  0  0  0  0  0  0  0  0
   -3.4889   -1.3522    1.9785 H   0  0  0  0  0  0  0  0  0  0  0  0
  1  2  2  0
  2  3  1  0
  3  4  2  0
  4  5  1  0
  5  6  1  0
  6  7  1  0
  7  8  1  0
  8  9  1  0
  9 10  2  0
 10 11  1  0
 11 12  2  0
 12 13  1  0
 13 14  2  0
 14 15  1  0
 15 16  1  0
 14 17  1  0
 17 18  2  0
 18 19  1  0
 19 20  1  0
 20 21  2  0
  8 22  2  0
  5 23  2  0
  6  2  1  0
 20  9  1  0
 18 11  1  0
  3 24  1  0
  4 25  1  0
 10 26  1  0
 12 27  1  0
 13 28  1  0
 16 29  1  0
 16 30  1  0
 16 31  1  0
 17 32  1  0
M  END
