
     RDKit          3D

 37 40  0  0  0  0  0  0  0  0999 V2000
    0.0715   -0.7681    2.3155 O   0  0  0  0  0  0  0  0  0  0  0  0
    0.4769   -0.5893    1.1713 C   0  0  0  0  0  0  0  0  0  0  0  0
    1.8563   -0.5636    0.8199 C   0  0  0  0  0  0  0  0  0  0  0  0
    2.9499   -0.7547    1.6167 N   0  0  0  0  0  0  0  0  0  0  0  0
    4.1024   -0.6388    0.8610 C   0  0  0  0  0  0  0  0  0  0  0  0
    5.4449   -0.7548    1.2398 C   0  0  0  0  0  0  0  0  0  0  0  0
    6.4141   -0.5845    0.2450 C   0  0  0  0  0  0  0  0  0  0  0  0
    6.0470   -0.3097   -1.0716 C   0  0  0  0  0  0  0  0  0  0  0  0
    7.3922   -0.0865   -2.3846 Br  0  0  0  0  0  0  0  0  0  0  0  0
    4.7044   -0.1953   -1.4427 C   0  0  0  0  0  0  0  0  0  0  0  0
    3.7133   -0.3634   -0.4574 C   0  0  0  0  0  0  0  0  0  0  0  0
    2.3037   -0.3233   -0.4460 C   0  0  0  0  0  0  0  0  0  0  0  0
    1.4456   -0.0775   -1.5184 N   0  0  0  0  0  0  0  0  0  0  0  0
    0.1903   -0.1174   -1.1891 C   0  0  0  0  0  0  0  0  0  0  0  0
   -0.3452   -0.3706    0.0689 N   0  0  0  0  0  0  0  0  0  0  0  0
   -1.7875   -0.3431    0.2644 C   0  0  0  0  0  0  0  0  0  0  0  0
   -2.2647    1.0474    0.6957 C   0  0  0  0  0  0  0  0  0  0  0  0
   -3.7489    1.0751    1.0576 C   0  0  0  0  0  0  0  0  0  0  0  0
   -4.6171    0.7782   -0.0614 N   0  0  0  0  0  0  0  0  0  0  0  0
   -5.2855   -0.3930   -0.2802 C   0  0  0  0  0  0  0  0  0  0  0  0
   -5.9551   -0.2002   -1.4663 C   0  0  0  0  0  0  0  0  0  0  0  0
   -5.7120    1.0544   -1.9624 N   0  0  0  0  0  0  0  0  0  0  0  0
   -4.9167    1.6269   -1.0877 C   0  0  0  0  0  0  0  0  0  0  0  0
    2.9162   -0.9513    2.6086 H   0  0  0  0  0  0  0  0  0  0  0  0
    5.7320   -0.9686    2.2645 H   0  0  0  0  0  0  0  0  0  0  0  0
    7.4647   -0.6697    0.5133 H   0  0  0  0  0  0  0  0  0  0  0  0
    4.4150    0.0185   -2.4670 H   0  0  0  0  0  0  0  0  0  0  0  0
   -0.5702    0.0646   -1.9666 H   0  0  0  0  0  0  0  0  0  0  0  0
   -2.0568   -1.0853    1.0250 H   0  0  0  0  0  0  0  0  0  0  0  0
   -2.2714   -0.6369   -0.6736 H   0  0  0  0  0  0  0  0  0  0  0  0
   -2.0535    1.7698   -0.1028 H   0  0  0  0  0  0  0  0  0  0  0  0
   -1.6913    1.3782    1.5704 H   0  0  0  0  0  0  0  0  0  0  0  0
   -4.0282    2.0702    1.4232 H   0  0  0  0  0  0  0  0  0  0  0  0
   -3.9680    0.3587    1.8576 H   0  0  0  0  0  0  0  0  0  0  0  0
   -5.2376   -1.2369    0.3939 H   0  0  0  0  0  0  0  0  0  0  0  0
   -6.5998   -0.8958   -1.9881 H   0  0  0  0  0  0  0  0  0  0  0  0
   -4.5308    2.6362   -1.1547 H   0  0  0  0  0  0  0  0  0  0  0  0
  1  2  2  0
  2  3  1  0
  3  4  1  0
  4  5  1  0
  5  6  2  0
  6  7  1  0
  7  8  2  0
  8  9  1  0
  8 10  1  0
 10 11  2  0
 11 12  1  0
 12 13  1  0
 13 14  2  0
 14 15  1  0
 15 16  1  0
 16 17  1  0
 17 18  1  0
 18 19  1  0
 19 20  1  0
 20 21  2  0
 21 22  1  0
 22 23  2  0
 15  2  1  0
 23 19  1  0
 12  3  2  0
 11  5  1  0
  4 24  1  0
  6 25  1  0
  7 26  1  0
 10 27  1  0
 14 28  1  0
 16 29  1  0
 16 30  1  0
 17 31  1  0
 17 32  1  0
 18 33  1  0
 18 34  1  0
 20 35  1  0
 21 36  1  0
 23 37  1  0
M  END
