
     RDKit          3D

 37 40  0  0  0  0  0  0  0  0999 V2000
   -0.1170    1.7199   -1.4237 O   0  0  0  0  0  0  0  0  0  0  0  0
    0.4762    1.2146   -0.4762 C   0  0  0  0  0  0  0  0  0  0  0  0
    1.8518    0.8493   -0.5124 C   0  0  0  0  0  0  0  0  0  0  0  0
    2.7525    0.9940   -1.5300 N   0  0  0  0  0  0  0  0  0  0  0  0
    3.9835    0.5015   -1.1358 C   0  0  0  0  0  0  0  0  0  0  0  0
    5.1959    0.4383   -1.8347 C   0  0  0  0  0  0  0  0  0  0  0  0
    6.2912   -0.1232   -1.1715 C   0  0  0  0  0  0  0  0  0  0  0  0
    6.1678   -0.5967    0.1301 C   0  0  0  0  0  0  0  0  0  0  0  0
    7.2396   -1.1287    0.7339 F   0  0  0  0  0  0  0  0  0  0  0  0
    4.9604   -0.5331    0.8232 C   0  0  0  0  0  0  0  0  0  0  0  0
    3.8442    0.0282    0.1776 C   0  0  0  0  0  0  0  0  0  0  0  0
    2.4998    0.2609    0.5337 C   0  0  0  0  0  0  0  0  0  0  0  0
    1.8693   -0.0423    1.7409 N   0  0  0  0  0  0  0  0  0  0  0  0
    0.6183    0.3033    1.7649 C   0  0  0  0  0  0  0  0  0  0  0  0
   -0.1084    0.9206    0.7535 N   0  0  0  0  0  0  0  0  0  0  0  0
   -1.5209    1.2128    0.9443 C   0  0  0  0  0  0  0  0  0  0  0  0
   -2.4025    0.0643    0.4541 C   0  0  0  0  0  0  0  0  0  0  0  0
   -3.8810    0.4160    0.5867 C   0  0  0  0  0  0  0  0  0  0  0  0
   -4.7387   -0.6667    0.1518 N   0  0  0  0  0  0  0  0  0  0  0  0
   -5.1640   -0.8970   -1.1256 C   0  0  0  0  0  0  0  0  0  0  0  0
   -5.9553   -2.0187   -1.0362 C   0  0  0  0  0  0  0  0  0  0  0  0
   -6.0216   -2.4649    0.2587 N   0  0  0  0  0  0  0  0  0  0  0  0
   -5.2821   -1.6293    0.9521 C   0  0  0  0  0  0  0  0  0  0  0  0
    2.5449    1.4003   -2.4332 H   0  0  0  0  0  0  0  0  0  0  0  0
    5.2893    0.8078   -2.8509 H   0  0  0  0  0  0  0  0  0  0  0  0
    7.2533   -0.1952   -1.6705 H   0  0  0  0  0  0  0  0  0  0  0  0
    4.8881   -0.9094    1.8377 H   0  0  0  0  0  0  0  0  0  0  0  0
    0.0291    0.1030    2.6750 H   0  0  0  0  0  0  0  0  0  0  0  0
   -1.7055    1.3920    2.0102 H   0  0  0  0  0  0  0  0  0  0  0  0
   -1.7704    2.1347    0.4060 H   0  0  0  0  0  0  0  0  0  0  0  0
   -2.1773   -0.8452    1.0258 H   0  0  0  0  0  0  0  0  0  0  0  0
   -2.1689   -0.1686   -0.5926 H   0  0  0  0  0  0  0  0  0  0  0  0
   -4.1376    0.6443    1.6278 H   0  0  0  0  0  0  0  0  0  0  0  0
   -4.1311    1.2957   -0.0176 H   0  0  0  0  0  0  0  0  0  0  0  0
   -4.8809   -0.2749   -1.9631 H   0  0  0  0  0  0  0  0  0  0  0  0
   -6.4808   -2.5277   -1.8338 H   0  0  0  0  0  0  0  0  0  0  0  0
   -5.1112   -1.6800    2.0196 H   0  0  0  0  0  0  0  0  0  0  0  0
  1  2  2  0
  2  3  1  0
  3  4  1  0
  4  5  1  0
  5  6  2  0
  6  7  1  0
  7  8  2  0
  8  9  1  0
  8 10  1  0
 10 11  2  0
 11 12  1  0
 12 13  1  0
 13 14  2  0
 14 15  1  0
 15 16  1  0
 16 17  1  0
 17 18  1  0
 18 19  1  0
 19 20  1  0
 20 21  2  0
 21 22  1  0
 22 23  2  0
 15  2  1  0
 23 19  1  0
 12  3  2  0
 11  5  1  0
  4 24  1  0
  6 25  1  0
  7 26  1  0
 10 27  1  0
 14 28  1  0
 16 29  1  0
 16 30  1  0
 17 31  1  0
 17 32  1  0
 18 33  1  0
 18 34  1  0
 20 35  1  0
 21 36  1  0
 23 37  1  0
M  END
