
     RDKit          3D

 48 55  0  0  0  0  0  0  0  0999 V2000
   -1.6509    0.5867    0.9805 Si  0  0  0  0  0  4  0  0  0  0  0  0
   -2.6448   -0.7209    0.0873 C   0  0  0  0  0  0  0  0  0  0  0  0
   -1.8567   -1.5193   -0.6569 C   0  0  0  0  0  0  0  0  0  0  0  0
   -0.4342   -1.1562   -0.6053 C   0  0  0  0  0  0  0  0  0  0  0  0
    0.4352   -1.8550   -1.3374 N   0  0  0  0  0  0  0  0  0  0  0  0
    1.7376   -1.4771   -1.2345 C   0  0  0  0  0  0  0  0  0  0  0  0
    2.2873   -0.4630   -0.4254 C   0  0  0  0  0  0  0  0  0  0  0  0
    1.2871    0.3028    0.2762 C   0  0  0  0  0  0  0  0  0  0  0  0
   -0.0797   -0.0715    0.2041 C   0  0  0  0  0  0  0  0  0  0  0  0
    1.8875    1.4017    0.9511 C   0  0  0  0  0  0  0  0  0  0  0  0
    1.2784    2.3791    1.7020 C   0  0  0  0  0  0  0  0  0  0  0  0
    2.1994    3.2766    2.1558 O   0  0  0  0  0  0  0  0  0  0  0  0
    3.4136    2.8774    1.6907 C   0  0  0  0  0  0  0  0  0  0  0  0
    3.2778    1.7321    0.9442 C   0  0  0  0  0  0  0  0  0  0  0  0
    4.3088    1.0148    0.3111 C   0  0  0  0  0  0  0  0  0  0  0  0
    5.6959    1.4390    0.3509 C   0  0  0  0  0  0  0  0  0  0  0  0
    6.7422    0.7171   -0.2306 C   0  0  0  0  0  0  0  0  0  0  0  0
    6.2863   -0.4716   -0.7828 C   0  0  0  0  0  0  0  0  0  0  0  0
    7.1790   -1.3616   -1.3299 C   0  0  0  0  0  0  0  0  0  0  0  0
    6.3953   -2.7932   -1.8351 S   0  0  0  0  0  0  0  0  0  0  0  0
    4.8637   -2.2143   -1.3073 C   0  0  0  0  0  0  0  0  0  0  0  0
    4.9020   -0.9193   -0.8357 C   0  0  0  0  0  0  0  0  0  0  0  0
    3.7644   -0.1707   -0.3446 C   0  0  0  0  0  0  0  0  0  0  0  0
   -4.0717   -0.8753    0.2648 C   0  0  0  0  0  0  0  0  0  0  0  0
   -4.6850   -1.9851    0.8993 C   0  0  0  0  0  0  0  0  0  0  0  0
   -6.1061   -2.1282    1.0813 C   0  0  0  0  0  0  0  0  0  0  0  0
   -7.0633   -1.1849    0.6426 C   0  0  0  0  0  0  0  0  0  0  0  0
   -6.4416   -0.1165    0.0100 C   0  0  0  0  0  0  0  0  0  0  0  0
   -7.0759    0.9592   -0.5544 C   0  0  0  0  0  0  0  0  0  0  0  0
   -6.0944    1.7630   -1.0938 N   0  0  0  0  0  0  0  0  0  0  0  0
   -4.8480    1.2102   -0.8764 C   0  0  0  0  0  0  0  0  0  0  0  0
   -5.0333    0.0421   -0.1760 C   0  0  0  0  0  0  0  0  0  0  0  0
   -1.9369    1.9730    0.5268 H   0  0  0  0  0  0  0  0  0  0  0  0
   -1.6430    0.4201    2.4564 H   0  0  0  0  0  0  0  0  0  0  0  0
   -2.1849   -2.3602   -1.2517 H   0  0  0  0  0  0  0  0  0  0  0  0
    2.3534   -2.0348   -1.9292 H   0  0  0  0  0  0  0  0  0  0  0  0
    0.2692    2.6056    2.0076 H   0  0  0  0  0  0  0  0  0  0  0  0
    4.2419    3.5070    1.9829 H   0  0  0  0  0  0  0  0  0  0  0  0
    5.9574    2.3672    0.8574 H   0  0  0  0  0  0  0  0  0  0  0  0
    7.7736    1.0420   -0.1924 H   0  0  0  0  0  0  0  0  0  0  0  0
    8.2513   -1.2679   -1.4364 H   0  0  0  0  0  0  0  0  0  0  0  0
    4.0488   -2.9155   -1.3703 H   0  0  0  0  0  0  0  0  0  0  0  0
   -4.0482   -2.7840    1.2818 H   0  0  0  0  0  0  0  0  0  0  0  0
   -6.4636   -3.0251    1.5884 H   0  0  0  0  0  0  0  0  0  0  0  0
   -8.1279   -1.3055    0.7801 H   0  0  0  0  0  0  0  0  0  0  0  0
   -8.1197    1.2294   -0.6376 H   0  0  0  0  0  0  0  0  0  0  0  0
   -6.2634    2.6275   -1.5915 H   0  0  0  0  0  0  0  0  0  0  0  0
   -3.9637    1.7031   -1.2556 H   0  0  0  0  0  0  0  0  0  0  0  0
  1  2  1  0
  2  3  2  0
  3  4  1  0
  4  5  2  0
  5  6  1  0
  6  7  2  0
  7  8  1  0
  8  9  2  0
  8 10  1  0
 10 11  2  0
 11 12  1  0
 12 13  1  0
 13 14  2  0
 14 15  1  0
 15 16  1  0
 16 17  2  0
 17 18  1  0
 18 19  2  0
 19 20  1  0
 20 21  1  0
 21 22  2  0
 22 23  1  0
  2 24  1  0
 24 25  2  0
 25 26  1  0
 26 27  2  0
 27 28  1  0
 28 29  2  0
 29 30  1  0
 30 31  1  0
 31 32  2  0
  9  1  1  0
 14 10  1  0
 23 15  2  0
 32 24  1  0
  9  4  1  0
 22 18  1  0
 32 28  1  0
 23  7  1  0
  1 33  1  0
  1 34  1  0
  3 35  1  0
  6 36  1  0
 11 37  1  0
 13 38  1  0
 16 39  1  0
 17 40  1  0
 19 41  1  0
 21 42  1  0
 25 43  1  0
 26 44  1  0
 27 45  1  0
 29 46  1  0
 30 47  1  0
 31 48  1  0
M  END
