
     RDKit          3D

 33 35  0  0  0  0  0  0  0  0999 V2000
    0.0922   -1.3518   -0.7570 O   0  0  0  0  0  0  0  0  0  0  0  0
   -0.0228   -0.3447   -0.0685 C   0  0  0  0  0  0  0  0  0  0  0  0
   -1.3580    0.1568    0.3069 C   0  0  0  0  0  0  0  0  0  0  0  0
   -2.5133   -0.5101   -0.1240 C   0  0  0  0  0  0  0  0  0  0  0  0
   -3.7726   -0.0261    0.2373 C   0  0  0  0  0  0  0  0  0  0  0  0
   -4.9653   -0.5936   -0.1248 O   0  0  0  0  0  0  0  0  0  0  0  0
   -4.9173   -1.7635   -0.9302 C   0  0  0  0  0  0  0  0  0  0  0  0
   -3.8516    1.1295    1.0324 C   0  0  0  0  0  0  0  0  0  0  0  0
   -5.0844    1.6079    1.3897 O   0  0  0  0  0  0  0  0  0  0  0  0
   -2.7022    1.7942    1.4618 C   0  0  0  0  0  0  0  0  0  0  0  0
   -1.4525    1.3010    1.0940 C   0  0  0  0  0  0  0  0  0  0  0  0
   -0.3534    1.9879    1.5407 O   0  0  0  0  0  0  0  0  0  0  0  0
    0.8850    1.5115    1.1845 C   0  0  0  0  0  0  0  0  0  0  0  0
    1.1472    0.4343    0.4273 C   0  0  0  0  0  0  0  0  0  0  0  0
    2.5388    0.0391    0.1419 C   0  0  0  0  0  0  0  0  0  0  0  0
    3.4608    0.9642   -0.3765 C   0  0  0  0  0  0  0  0  0  0  0  0
    4.7825    0.5887   -0.6367 C   0  0  0  0  0  0  0  0  0  0  0  0
    5.1850   -0.7170   -0.3803 C   0  0  0  0  0  0  0  0  0  0  0  0
    6.4628   -1.1270   -0.6180 O   0  0  0  0  0  0  0  0  0  0  0  0
    4.2891   -1.6495    0.1259 C   0  0  0  0  0  0  0  0  0  0  0  0
    2.9686   -1.2735    0.3839 C   0  0  0  0  0  0  0  0  0  0  0  0
   -2.3987   -1.3989   -0.7370 H   0  0  0  0  0  0  0  0  0  0  0  0
   -4.4113   -2.5821   -0.4078 H   0  0  0  0  0  0  0  0  0  0  0  0
   -4.4456   -1.5583   -1.8969 H   0  0  0  0  0  0  0  0  0  0  0  0
   -5.9471   -2.0790   -1.1234 H   0  0  0  0  0  0  0  0  0  0  0  0
   -4.9803    2.4011    1.9376 H   0  0  0  0  0  0  0  0  0  0  0  0
   -2.7651    2.6866    2.0761 H   0  0  0  0  0  0  0  0  0  0  0  0
    1.6498    2.1424    1.6223 H   0  0  0  0  0  0  0  0  0  0  0  0
    3.1554    1.9853   -0.5949 H   0  0  0  0  0  0  0  0  0  0  0  0
    5.4740    1.3221   -1.0391 H   0  0  0  0  0  0  0  0  0  0  0  0
    6.9609   -0.3877   -1.0030 H   0  0  0  0  0  0  0  0  0  0  0  0
    4.6124   -2.6694    0.3139 H   0  0  0  0  0  0  0  0  0  0  0  0
    2.2772   -2.0201    0.7701 H   0  0  0  0  0  0  0  0  0  0  0  0
  1  2  2  0
  2  3  1  0
  3  4  2  0
  4  5  1  0
  5  6  1  0
  6  7  1  0
  5  8  2  0
  8  9  1  0
  8 10  1  0
 10 11  2  0
 11 12  1  0
 12 13  1  0
 13 14  2  0
 14 15  1  0
 15 16  2  0
 16 17  1  0
 17 18  2  0
 18 19  1  0
 18 20  1  0
 20 21  2  0
 14  2  1  0
 11  3  1  0
 21 15  1  0
  4 22  1  0
  7 23  1  0
  7 24  1  0
  7 25  1  0
  9 26  1  0
 10 27  1  0
 13 28  1  0
 16 29  1  0
 17 30  1  0
 19 31  1  0
 20 32  1  0
 21 33  1  0
M  END
