
     RDKit          3D

 35 37  0  0  0  0  0  0  0  0999 V2000
   -0.0946    1.2986    1.2773 O   0  0  0  0  0  0  0  0  0  0  0  0
   -0.2205    0.1479    0.8768 C   0  0  0  0  0  0  0  0  0  0  0  0
   -1.4716   -0.3051    0.2418 C   0  0  0  0  0  0  0  0  0  0  0  0
   -2.5243    0.5941    0.0261 C   0  0  0  0  0  0  0  0  0  0  0  0
   -3.7058    0.1504   -0.5722 C   0  0  0  0  0  0  0  0  0  0  0  0
   -4.7972    0.9362   -0.8324 O   0  0  0  0  0  0  0  0  0  0  0  0
   -4.7178    2.3085   -0.4720 C   0  0  0  0  0  0  0  0  0  0  0  0
   -3.8111   -1.2003   -0.9453 C   0  0  0  0  0  0  0  0  0  0  0  0
   -4.9684   -1.6398   -1.5320 O   0  0  0  0  0  0  0  0  0  0  0  0
   -2.7636   -2.0968   -0.7290 C   0  0  0  0  0  0  0  0  0  0  0  0
   -1.5903   -1.6414   -0.1323 C   0  0  0  0  0  0  0  0  0  0  0  0
   -0.5904   -2.5599    0.0644 O   0  0  0  0  0  0  0  0  0  0  0  0
    0.5831   -2.1137    0.6208 C   0  0  0  0  0  0  0  0  0  0  0  0
    0.8567   -0.8618    1.0148 C   0  0  0  0  0  0  0  0  0  0  0  0
    2.1597   -0.4411    1.6283 C   0  0  0  0  0  0  0  0  0  0  0  0
    3.1425    0.0957    0.6125 C   0  0  0  0  0  0  0  0  0  0  0  0
    4.0673   -0.7575   -0.0073 C   0  0  0  0  0  0  0  0  0  0  0  0
    4.9607   -0.2619   -0.9586 C   0  0  0  0  0  0  0  0  0  0  0  0
    4.9361    1.0881   -1.3035 C   0  0  0  0  0  0  0  0  0  0  0  0
    4.0175    1.9437   -0.6990 C   0  0  0  0  0  0  0  0  0  0  0  0
    3.1240    1.4506    0.2528 C   0  0  0  0  0  0  0  0  0  0  0  0
   -2.3931    1.6269    0.3335 H   0  0  0  0  0  0  0  0  0  0  0  0
   -4.5931    2.4262    0.6094 H   0  0  0  0  0  0  0  0  0  0  0  0
   -5.6638    2.7827   -0.7508 H   0  0  0  0  0  0  0  0  0  0  0  0
   -3.9174    2.8155   -1.0210 H   0  0  0  0  0  0  0  0  0  0  0  0
   -4.8900   -2.5838   -1.7393 H   0  0  0  0  0  0  0  0  0  0  0  0
   -2.8469   -3.1397   -1.0166 H   0  0  0  0  0  0  0  0  0  0  0  0
    1.2898   -2.9312    0.6935 H   0  0  0  0  0  0  0  0  0  0  0  0
    1.9974    0.3050    2.4166 H   0  0  0  0  0  0  0  0  0  0  0  0
    2.6188   -1.2924    2.1497 H   0  0  0  0  0  0  0  0  0  0  0  0
    4.0994   -1.8141    0.2473 H   0  0  0  0  0  0  0  0  0  0  0  0
    5.6759   -0.9293   -1.4322 H   0  0  0  0  0  0  0  0  0  0  0  0
    5.6309    1.4735   -2.0449 H   0  0  0  0  0  0  0  0  0  0  0  0
    3.9932    2.9961   -0.9695 H   0  0  0  0  0  0  0  0  0  0  0  0
    2.4070    2.1302    0.7114 H   0  0  0  0  0  0  0  0  0  0  0  0
  1  2  2  0
  2  3  1  0
  3  4  2  0
  4  5  1  0
  5  6  1  0
  6  7  1  0
  5  8  2  0
  8  9  1  0
  8 10  1  0
 10 11  2  0
 11 12  1  0
 12 13  1  0
 13 14  2  0
 14 15  1  0
 15 16  1  0
 16 17  2  0
 17 18  1  0
 18 19  2  0
 19 20  1  0
 20 21  2  0
 14  2  1  0
 11  3  1  0
 21 16  1  0
  4 22  1  0
  7 23  1  0
  7 24  1  0
  7 25  1  0
  9 26  1  0
 10 27  1  0
 13 28  1  0
 15 29  1  0
 15 30  1  0
 17 31  1  0
 18 32  1  0
 19 33  1  0
 20 34  1  0
 21 35  1  0
M  END
