
     RDKit          3D

 31 33  0  0  0  0  0  0  0  0999 V2000
   -0.5465    0.7552    1.5648 O   0  0  0  0  0  0  0  0  0  0  0  0
   -0.2950    0.1623    0.5222 C   0  0  0  0  0  0  0  0  0  0  0  0
    1.1010   -0.0742    0.1111 C   0  0  0  0  0  0  0  0  0  0  0  0
    2.1646    0.3655    0.9060 C   0  0  0  0  0  0  0  0  0  0  0  0
    3.4837    0.1358    0.5060 C   0  0  0  0  0  0  0  0  0  0  0  0
    4.4322    0.6131    1.3670 O   0  0  0  0  0  0  0  0  0  0  0  0
    5.7932    0.4050    1.0113 C   0  0  0  0  0  0  0  0  0  0  0  0
    3.7295   -0.5362   -0.6941 C   0  0  0  0  0  0  0  0  0  0  0  0
    2.6633   -0.9747   -1.4873 C   0  0  0  0  0  0  0  0  0  0  0  0
    1.3502   -0.7425   -1.0824 C   0  0  0  0  0  0  0  0  0  0  0  0
    0.3512   -1.1951   -1.9037 O   0  0  0  0  0  0  0  0  0  0  0  0
   -0.9462   -0.9720   -1.5107 C   0  0  0  0  0  0  0  0  0  0  0  0
   -1.3554   -0.3559   -0.3898 C   0  0  0  0  0  0  0  0  0  0  0  0
   -2.7939   -0.1805   -0.1134 C   0  0  0  0  0  0  0  0  0  0  0  0
   -3.6827   -1.2650   -0.1914 C   0  0  0  0  0  0  0  0  0  0  0  0
   -5.0459   -1.0908    0.0621 C   0  0  0  0  0  0  0  0  0  0  0  0
   -5.5372    0.1679    0.4003 C   0  0  0  0  0  0  0  0  0  0  0  0
   -4.6665    1.2514    0.4897 C   0  0  0  0  0  0  0  0  0  0  0  0
   -3.3035    1.0779    0.2357 C   0  0  0  0  0  0  0  0  0  0  0  0
    1.9680    0.8881    1.8402 H   0  0  0  0  0  0  0  0  0  0  0  0
    6.0379    0.9137    0.0730 H   0  0  0  0  0  0  0  0  0  0  0  0
    6.4152    0.8416    1.7987 H   0  0  0  0  0  0  0  0  0  0  0  0
    6.0275   -0.6631    0.9553 H   0  0  0  0  0  0  0  0  0  0  0  0
    4.7383   -0.7348   -1.0416 H   0  0  0  0  0  0  0  0  0  0  0  0
    2.8610   -1.4966   -2.4203 H   0  0  0  0  0  0  0  0  0  0  0  0
   -1.6194   -1.3684   -2.2618 H   0  0  0  0  0  0  0  0  0  0  0  0
   -3.3215   -2.2610   -0.4375 H   0  0  0  0  0  0  0  0  0  0  0  0
   -5.7223   -1.9395    0.0024 H   0  0  0  0  0  0  0  0  0  0  0  0
   -6.5964    0.3035    0.6028 H   0  0  0  0  0  0  0  0  0  0  0  0
   -5.0442    2.2330    0.7643 H   0  0  0  0  0  0  0  0  0  0  0  0
   -2.6406    1.9370    0.3215 H   0  0  0  0  0  0  0  0  0  0  0  0
  1  2  2  0
  2  3  1  0
  3  4  2  0
  4  5  1  0
  5  6  1  0
  6  7  1  0
  5  8  2  0
  8  9  1  0
  9 10  2  0
 10 11  1  0
 11 12  1  0
 12 13  2  0
 13 14  1  0
 14 15  2  0
 15 16  1  0
 16 17  2  0
 17 18  1  0
 18 19  2  0
 13  2  1  0
 10  3  1  0
 19 14  1  0
  4 20  1  0
  7 21  1  0
  7 22  1  0
  7 23  1  0
  8 24  1  0
  9 25  1  0
 12 26  1  0
 15 27  1  0
 16 28  1  0
 17 29  1  0
 18 30  1  0
 19 31  1  0
M  END
