
     RDKit          3D

 32 34  0  0  0  0  0  0  0  0999 V2000
   -0.5888   -1.6990   -1.4204 O   0  0  0  0  0  0  0  0  0  0  0  0
   -0.0483   -0.8409   -0.7318 C   0  0  0  0  0  0  0  0  0  0  0  0
    1.4202   -0.6999   -0.7270 C   0  0  0  0  0  0  0  0  0  0  0  0
    2.2082   -1.5512   -1.5081 C   0  0  0  0  0  0  0  0  0  0  0  0
    3.5956   -1.4206   -1.4890 C   0  0  0  0  0  0  0  0  0  0  0  0
    4.1845   -0.4354   -0.6952 C   0  0  0  0  0  0  0  0  0  0  0  0
    5.5459   -0.3172   -0.6611 O   0  0  0  0  0  0  0  0  0  0  0  0
    3.4106    0.4414    0.0784 C   0  0  0  0  0  0  0  0  0  0  0  0
    4.0629    1.4777    0.9517 C   0  0  0  0  0  0  0  0  0  0  0  0
    2.0135    0.2846    0.0653 C   0  0  0  0  0  0  0  0  0  0  0  0
    1.2662    1.1240    0.8566 O   0  0  0  0  0  0  0  0  0  0  0  0
   -0.0992    0.9843    0.8443 C   0  0  0  0  0  0  0  0  0  0  0  0
   -0.8137    0.1031    0.1281 C   0  0  0  0  0  0  0  0  0  0  0  0
   -2.2841    0.0670    0.2324 C   0  0  0  0  0  0  0  0  0  0  0  0
   -3.0486    1.2348    0.0700 C   0  0  0  0  0  0  0  0  0  0  0  0
   -4.4424    1.1993    0.1793 C   0  0  0  0  0  0  0  0  0  0  0  0
   -5.0760   -0.0081    0.4495 C   0  0  0  0  0  0  0  0  0  0  0  0
   -6.4317   -0.0895    0.5650 O   0  0  0  0  0  0  0  0  0  0  0  0
   -4.3411   -1.1757    0.6072 C   0  0  0  0  0  0  0  0  0  0  0  0
   -2.9489   -1.1391    0.4964 C   0  0  0  0  0  0  0  0  0  0  0  0
    1.7432   -2.3180   -2.1244 H   0  0  0  0  0  0  0  0  0  0  0  0
    4.1973   -2.0939   -2.0925 H   0  0  0  0  0  0  0  0  0  0  0  0
    5.9394   -0.9903   -1.2406 H   0  0  0  0  0  0  0  0  0  0  0  0
    3.4389    2.3729    1.0415 H   0  0  0  0  0  0  0  0  0  0  0  0
    4.2383    1.0658    1.9503 H   0  0  0  0  0  0  0  0  0  0  0  0
    5.0183    1.8122    0.5348 H   0  0  0  0  0  0  0  0  0  0  0  0
   -0.5367    1.7052    1.5250 H   0  0  0  0  0  0  0  0  0  0  0  0
   -2.5663    2.1835   -0.1556 H   0  0  0  0  0  0  0  0  0  0  0  0
   -5.0090    2.1155    0.0473 H   0  0  0  0  0  0  0  0  0  0  0  0
   -6.8116    0.7880    0.3967 H   0  0  0  0  0  0  0  0  0  0  0  0
   -4.8474   -2.1153    0.8094 H   0  0  0  0  0  0  0  0  0  0  0  0
   -2.3893   -2.0653    0.6125 H   0  0  0  0  0  0  0  0  0  0  0  0
  1  2  2  0
  2  3  1  0
  3  4  2  0
  4  5  1  0
  5  6  2  0
  6  7  1  0
  6  8  1  0
  8  9  1  0
  8 10  2  0
 10 11  1  0
 11 12  1  0
 12 13  2  0
 13 14  1  0
 14 15  2  0
 15 16  1  0
 16 17  2  0
 17 18  1  0
 17 19  1  0
 19 20  2  0
 13  2  1  0
 10  3  1  0
 20 14  1  0
  4 21  1  0
  5 22  1  0
  7 23  1  0
  9 24  1  0
  9 25  1  0
  9 26  1  0
 12 27  1  0
 15 28  1  0
 16 29  1  0
 18 30  1  0
 19 31  1  0
 20 32  1  0
M  END
