
     RDKit          3D

 21 22  0  0  0  0  0  0  0  0999 V2000
   -0.8328    2.9183   -0.6553 O   0  0  0  0  0  0  0  0  0  0  0  0
   -0.8305    1.7252   -0.3839 C   0  0  0  0  0  0  0  0  0  0  0  0
    0.4092    0.9502   -0.2292 C   0  0  0  0  0  0  0  0  0  0  0  0
    1.6582    1.5574   -0.3891 C   0  0  0  0  0  0  0  0  0  0  0  0
    2.8162    0.7943   -0.2357 C   0  0  0  0  0  0  0  0  0  0  0  0
    2.7153   -0.5598    0.0742 C   0  0  0  0  0  0  0  0  0  0  0  0
    3.8749   -1.2630    0.2139 O   0  0  0  0  0  0  0  0  0  0  0  0
    1.4737   -1.1698    0.2346 C   0  0  0  0  0  0  0  0  0  0  0  0
    0.3158   -0.4058    0.0810 C   0  0  0  0  0  0  0  0  0  0  0  0
   -0.8846   -1.0514    0.2488 O   0  0  0  0  0  0  0  0  0  0  0  0
   -2.0536   -0.3206    0.1030 C   0  0  0  0  0  0  0  0  0  0  0  0
   -3.2958   -1.1301    0.3088 C   0  0  0  0  0  0  0  0  0  0  0  0
   -2.0898    0.9865   -0.1938 C   0  0  0  0  0  0  0  0  0  0  0  0
    1.7302    2.6153   -0.6311 H   0  0  0  0  0  0  0  0  0  0  0  0
    3.7938    1.2535   -0.3573 H   0  0  0  0  0  0  0  0  0  0  0  0
    3.6622   -2.1866    0.4278 H   0  0  0  0  0  0  0  0  0  0  0  0
    1.3904   -2.2244    0.4760 H   0  0  0  0  0  0  0  0  0  0  0  0
   -3.3055   -1.5569    1.3169 H   0  0  0  0  0  0  0  0  0  0  0  0
   -3.3357   -1.9509   -0.4145 H   0  0  0  0  0  0  0  0  0  0  0  0
   -4.2040   -0.5305    0.1883 H   0  0  0  0  0  0  0  0  0  0  0  0
   -3.0077    1.5491   -0.3058 H   0  0  0  0  0  0  0  0  0  0  0  0
  1  2  2  0
  2  3  1  0
  3  4  2  0
  4  5  1  0
  5  6  2  0
  6  7  1  0
  6  8  1  0
  8  9  2  0
  9 10  1  0
 10 11  1  0
 11 12  1  0
 11 13  2  0
 13  2  1  0
  9  3  1  0
  4 14  1  0
  5 15  1  0
  7 16  1  0
  8 17  1  0
 12 18  1  0
 12 19  1  0
 12 20  1  0
 13 21  1  0
M  END
