
     RDKit          3D

 18 19  0  0  0  0  0  0  0  0999 V2000
   -2.4154    1.8925   -0.5188 O   0  0  0  0  0  0  0  0  0  0  0  0
   -1.9366    0.8016   -0.2406 C   0  0  0  0  0  0  0  0  0  0  0  0
   -0.4843    0.5704   -0.1508 C   0  0  0  0  0  0  0  0  0  0  0  0
    0.4204    1.6099   -0.3846 C   0  0  0  0  0  0  0  0  0  0  0  0
    1.7902    1.3603   -0.2921 C   0  0  0  0  0  0  0  0  0  0  0  0
    2.2404    0.0823    0.0312 C   0  0  0  0  0  0  0  0  0  0  0  0
    3.5880   -0.1105    0.1092 O   0  0  0  0  0  0  0  0  0  0  0  0
    1.3448   -0.9581    0.2654 C   0  0  0  0  0  0  0  0  0  0  0  0
   -0.0250   -0.7082    0.1729 C   0  0  0  0  0  0  0  0  0  0  0  0
   -0.8719   -1.7646    0.4122 O   0  0  0  0  0  0  0  0  0  0  0  0
   -2.2233   -1.5294    0.3236 C   0  0  0  0  0  0  0  0  0  0  0  0
   -2.7993   -0.3622    0.0246 C   0  0  0  0  0  0  0  0  0  0  0  0
    0.0633    2.6058   -0.6367 H   0  0  0  0  0  0  0  0  0  0  0  0
    2.5047    2.1596   -0.4715 H   0  0  0  0  0  0  0  0  0  0  0  0
    3.7633   -1.0377    0.3403 H   0  0  0  0  0  0  0  0  0  0  0  0
    1.6912   -1.9550    0.5175 H   0  0  0  0  0  0  0  0  0  0  0  0
   -2.7807   -2.4334    0.5323 H   0  0  0  0  0  0  0  0  0  0  0  0
   -3.8700   -0.2232   -0.0340 H   0  0  0  0  0  0  0  0  0  0  0  0
  1  2  2  0
  2  3  1  0
  3  4  2  0
  4  5  1  0
  5  6  2  0
  6  7  1  0
  6  8  1  0
  8  9  2  0
  9 10  1  0
 10 11  1  0
 11 12  2  0
 12  2  1  0
  9  3  1  0
  4 13  1  0
  5 14  1  0
  7 15  1  0
  8 16  1  0
 11 17  1  0
 12 18  1  0
M  END
