
     RDKit          3D

 28 30  0  0  0  0  0  0  0  0999 V2000
    0.3209   -0.0454    1.9496 O   0  0  0  0  0  0  0  0  0  0  0  0
    0.4498   -0.0943    0.7317 C   0  0  0  0  0  0  0  0  0  0  0  0
    1.7517   -0.4340    0.1291 C   0  0  0  0  0  0  0  0  0  0  0  0
    2.8650   -0.6968    0.9366 C   0  0  0  0  0  0  0  0  0  0  0  0
    4.0899   -1.0167    0.3471 C   0  0  0  0  0  0  0  0  0  0  0  0
    4.1864   -1.0700   -1.0416 C   0  0  0  0  0  0  0  0  0  0  0  0
    5.3624   -1.3781   -1.6583 O   0  0  0  0  0  0  0  0  0  0  0  0
    3.0828   -0.8097   -1.8488 C   0  0  0  0  0  0  0  0  0  0  0  0
    1.8612   -0.4904   -1.2582 C   0  0  0  0  0  0  0  0  0  0  0  0
    0.8043   -0.2436   -2.0956 O   0  0  0  0  0  0  0  0  0  0  0  0
   -0.4031    0.0760   -1.5229 C   0  0  0  0  0  0  0  0  0  0  0  0
   -0.6715    0.1816   -0.2115 C   0  0  0  0  0  0  0  0  0  0  0  0
   -2.0290    0.5237    0.2538 C   0  0  0  0  0  0  0  0  0  0  0  0
   -2.6620   -0.2543    1.2346 C   0  0  0  0  0  0  0  0  0  0  0  0
   -3.9503    0.0619    1.6774 C   0  0  0  0  0  0  0  0  0  0  0  0
   -4.6150    1.1621    1.1433 C   0  0  0  0  0  0  0  0  0  0  0  0
   -6.2002    1.5518    1.6859 Cl  0  0  0  0  0  0  0  0  0  0  0  0
   -4.0017    1.9510    0.1734 C   0  0  0  0  0  0  0  0  0  0  0  0
   -2.7131    1.6341   -0.2681 C   0  0  0  0  0  0  0  0  0  0  0  0
    2.7786   -0.6519    2.0204 H   0  0  0  0  0  0  0  0  0  0  0  0
    4.9479   -1.2187    0.9813 H   0  0  0  0  0  0  0  0  0  0  0  0
    6.0427   -1.5342   -0.9822 H   0  0  0  0  0  0  0  0  0  0  0  0
    3.1768   -0.8563   -2.9298 H   0  0  0  0  0  0  0  0  0  0  0  0
   -1.1374    0.2283   -2.3054 H   0  0  0  0  0  0  0  0  0  0  0  0
   -2.1538   -1.1127    1.6710 H   0  0  0  0  0  0  0  0  0  0  0  0
   -4.4216   -0.5514    2.4408 H   0  0  0  0  0  0  0  0  0  0  0  0
   -4.5159    2.8152   -0.2387 H   0  0  0  0  0  0  0  0  0  0  0  0
   -2.2459    2.2729   -1.0148 H   0  0  0  0  0  0  0  0  0  0  0  0
  1  2  2  0
  2  3  1  0
  3  4  2  0
  4  5  1  0
  5  6  2  0
  6  7  1  0
  6  8  1  0
  8  9  2  0
  9 10  1  0
 10 11  1  0
 11 12  2  0
 12 13  1  0
 13 14  2  0
 14 15  1  0
 15 16  2  0
 16 17  1  0
 16 18  1  0
 18 19  2  0
 12  2  1  0
  9  3  1  0
 19 13  1  0
  4 20  1  0
  5 21  1  0
  7 22  1  0
  8 23  1  0
 11 24  1  0
 14 25  1  0
 15 26  1  0
 18 27  1  0
 19 28  1  0
M  END
