
     RDKit          3D

 32 34  0  0  0  0  0  0  0  0999 V2000
    0.7777   -1.7571    1.0695 O   0  0  0  0  0  0  0  0  0  0  0  0
    1.1912   -0.7877    0.4443 C   0  0  0  0  0  0  0  0  0  0  0  0
    2.6356   -0.4984    0.3781 C   0  0  0  0  0  0  0  0  0  0  0  0
    3.5590   -1.3215    1.0317 C   0  0  0  0  0  0  0  0  0  0  0  0
    4.9209   -1.0271    0.9544 C   0  0  0  0  0  0  0  0  0  0  0  0
    5.3474    0.0814    0.2282 C   0  0  0  0  0  0  0  0  0  0  0  0
    6.6873    0.3280    0.1814 O   0  0  0  0  0  0  0  0  0  0  0  0
    4.4349    0.9054   -0.4250 C   0  0  0  0  0  0  0  0  0  0  0  0
    3.0730    0.6092   -0.3461 C   0  0  0  0  0  0  0  0  0  0  0  0
    2.2130    1.4489   -1.0066 O   0  0  0  0  0  0  0  0  0  0  0  0
    0.8696    1.1695   -0.9374 C   0  0  0  0  0  0  0  0  0  0  0  0
    0.2890    0.1542   -0.2778 C   0  0  0  0  0  0  0  0  0  0  0  0
   -1.1748   -0.0211   -0.3105 C   0  0  0  0  0  0  0  0  0  0  0  0
   -2.0382    1.0405   -0.0000 C   0  0  0  0  0  0  0  0  0  0  0  0
   -3.4291    0.8747   -0.0417 C   0  0  0  0  0  0  0  0  0  0  0  0
   -3.9781   -0.3577   -0.3919 C   0  0  0  0  0  0  0  0  0  0  0  0
   -5.3105   -0.6527   -0.4729 O   0  0  0  0  0  0  0  0  0  0  0  0
   -6.2211    0.3834   -0.1283 C   0  0  0  0  0  0  0  0  0  0  0  0
   -3.1246   -1.4194   -0.6954 C   0  0  0  0  0  0  0  0  0  0  0  0
   -1.7364   -1.2561   -0.6532 C   0  0  0  0  0  0  0  0  0  0  0  0
    3.2220   -2.1867    1.5985 H   0  0  0  0  0  0  0  0  0  0  0  0
    5.6465   -1.6601    1.4587 H   0  0  0  0  0  0  0  0  0  0  0  0
    6.8461    1.1219   -0.3555 H   0  0  0  0  0  0  0  0  0  0  0  0
    4.7624    1.7703   -0.9925 H   0  0  0  0  0  0  0  0  0  0  0  0
    0.3225    1.9034   -1.5177 H   0  0  0  0  0  0  0  0  0  0  0  0
   -1.6391    2.0098    0.2913 H   0  0  0  0  0  0  0  0  0  0  0  0
   -4.0514    1.7271    0.2091 H   0  0  0  0  0  0  0  0  0  0  0  0
   -7.2350   -0.0161   -0.2267 H   0  0  0  0  0  0  0  0  0  0  0  0
   -6.0868    0.6982    0.9119 H   0  0  0  0  0  0  0  0  0  0  0  0
   -6.1299    1.2324   -0.8138 H   0  0  0  0  0  0  0  0  0  0  0  0
   -3.5421   -2.3877   -0.9613 H   0  0  0  0  0  0  0  0  0  0  0  0
   -1.1012   -2.1089   -0.8851 H   0  0  0  0  0  0  0  0  0  0  0  0
  1  2  2  0
  2  3  1  0
  3  4  2  0
  4  5  1  0
  5  6  2  0
  6  7  1  0
  6  8  1  0
  8  9  2  0
  9 10  1  0
 10 11  1  0
 11 12  2  0
 12 13  1  0
 13 14  2  0
 14 15  1  0
 15 16  2  0
 16 17  1  0
 17 18  1  0
 16 19  1  0
 19 20  2  0
 12  2  1  0
  9  3  1  0
 20 13  1  0
  4 21  1  0
  5 22  1  0
  7 23  1  0
  8 24  1  0
 11 25  1  0
 14 26  1  0
 15 27  1  0
 18 28  1  0
 18 29  1  0
 18 30  1  0
 19 31  1  0
 20 32  1  0
M  END
