
     RDKit          3D

 29 31  0  0  0  0  0  0  0  0999 V2000
   -0.1612    1.9728   -0.0458 O   0  0  0  0  0  0  0  0  0  0  0  0
    0.3757    0.8764    0.0575 C   0  0  0  0  0  0  0  0  0  0  0  0
    1.8366    0.7666    0.2253 C   0  0  0  0  0  0  0  0  0  0  0  0
    2.6366    1.9130    0.2801 C   0  0  0  0  0  0  0  0  0  0  0  0
    4.0171    1.7835    0.4378 C   0  0  0  0  0  0  0  0  0  0  0  0
    4.5845    0.5163    0.5390 C   0  0  0  0  0  0  0  0  0  0  0  0
    5.9370    0.4406    0.6922 O   0  0  0  0  0  0  0  0  0  0  0  0
    3.7955   -0.6296    0.4851 C   0  0  0  0  0  0  0  0  0  0  0  0
    2.4147   -0.4979    0.3272 C   0  0  0  0  0  0  0  0  0  0  0  0
    1.6795   -1.6551    0.2798 O   0  0  0  0  0  0  0  0  0  0  0  0
    0.3182   -1.5401    0.1336 C   0  0  0  0  0  0  0  0  0  0  0  0
   -0.3855   -0.4032    0.0143 C   0  0  0  0  0  0  0  0  0  0  0  0
   -1.8516   -0.4436   -0.1198 C   0  0  0  0  0  0  0  0  0  0  0  0
   -2.4607   -1.1842   -1.1458 C   0  0  0  0  0  0  0  0  0  0  0  0
   -3.8530   -1.2292   -1.2617 C   0  0  0  0  0  0  0  0  0  0  0  0
   -4.6529   -0.5357   -0.3547 C   0  0  0  0  0  0  0  0  0  0  0  0
   -4.0508    0.2016    0.6594 C   0  0  0  0  0  0  0  0  0  0  0  0
   -4.7954    0.8938    1.5689 O   0  0  0  0  0  0  0  0  0  0  0  0
   -2.6651    0.2549    0.7814 C   0  0  0  0  0  0  0  0  0  0  0  0
    2.1893    2.9015    0.2005 H   0  0  0  0  0  0  0  0  0  0  0  0
    4.6475    2.6678    0.4818 H   0  0  0  0  0  0  0  0  0  0  0  0
    6.1980   -0.4932    0.7543 H   0  0  0  0  0  0  0  0  0  0  0  0
    4.2330   -1.6194    0.5636 H   0  0  0  0  0  0  0  0  0  0  0  0
   -0.1282   -2.5276    0.1371 H   0  0  0  0  0  0  0  0  0  0  0  0
   -1.8560   -1.7232   -1.8721 H   0  0  0  0  0  0  0  0  0  0  0  0
   -4.3117   -1.8027   -2.0632 H   0  0  0  0  0  0  0  0  0  0  0  0
   -5.7326   -0.5793   -0.4548 H   0  0  0  0  0  0  0  0  0  0  0  0
   -5.7317    0.8256    1.3211 H   0  0  0  0  0  0  0  0  0  0  0  0
   -2.2269    0.8496    1.5797 H   0  0  0  0  0  0  0  0  0  0  0  0
  1  2  2  0
  2  3  1  0
  3  4  2  0
  4  5  1  0
  5  6  2  0
  6  7  1  0
  6  8  1  0
  8  9  2  0
  9 10  1  0
 10 11  1  0
 11 12  2  0
 12 13  1  0
 13 14  2  0
 14 15  1  0
 15 16  2  0
 16 17  1  0
 17 18  1  0
 17 19  2  0
 12  2  1  0
  9  3  1  0
 19 13  1  0
  4 20  1  0
  5 21  1  0
  7 22  1  0
  8 23  1  0
 11 24  1  0
 14 25  1  0
 15 26  1  0
 16 27  1  0
 18 28  1  0
 19 29  1  0
M  END
