
     RDKit          3D

 32 34  0  0  0  0  0  0  0  0999 V2000
   -0.8460   -1.2231   -1.6919 O   0  0  0  0  0  0  0  0  0  0  0  0
   -1.0686   -0.5996   -0.6608 C   0  0  0  0  0  0  0  0  0  0  0  0
   -2.4175   -0.0769   -0.3752 C   0  0  0  0  0  0  0  0  0  0  0  0
   -3.4660   -0.2757   -1.2797 C   0  0  0  0  0  0  0  0  0  0  0  0
   -4.7339    0.2285   -0.9870 C   0  0  0  0  0  0  0  0  0  0  0  0
   -4.9432    0.9235    0.2010 C   0  0  0  0  0  0  0  0  0  0  0  0
   -6.1987    1.3964    0.4428 O   0  0  0  0  0  0  0  0  0  0  0  0
   -3.9050    1.1256    1.1063 C   0  0  0  0  0  0  0  0  0  0  0  0
   -2.6373    0.6207    0.8113 C   0  0  0  0  0  0  0  0  0  0  0  0
   -1.6472    0.8440    1.7338 O   0  0  0  0  0  0  0  0  0  0  0  0
   -0.3941    0.3538    1.4561 C   0  0  0  0  0  0  0  0  0  0  0  0
   -0.0179   -0.3249    0.3603 C   0  0  0  0  0  0  0  0  0  0  0  0
    1.3709   -0.8000    0.2131 C   0  0  0  0  0  0  0  0  0  0  0  0
    1.6288   -2.1466   -0.0749 C   0  0  0  0  0  0  0  0  0  0  0  0
    2.9397   -2.6055   -0.2003 C   0  0  0  0  0  0  0  0  0  0  0  0
    4.0039   -1.7195   -0.0421 C   0  0  0  0  0  0  0  0  0  0  0  0
    3.7706   -0.3710    0.2329 C   0  0  0  0  0  0  0  0  0  0  0  0
    4.9015    0.3889    0.3562 O   0  0  0  0  0  0  0  0  0  0  0  0
    4.7233    1.7851    0.5570 C   0  0  0  0  0  0  0  0  0  0  0  0
    2.4555    0.0849    0.3597 C   0  0  0  0  0  0  0  0  0  0  0  0
   -3.2989   -0.8191   -2.2072 H   0  0  0  0  0  0  0  0  0  0  0  0
   -5.5555    0.0797   -1.6829 H   0  0  0  0  0  0  0  0  0  0  0  0
   -6.2067    1.8546    1.2995 H   0  0  0  0  0  0  0  0  0  0  0  0
   -4.0633    1.6663    2.0336 H   0  0  0  0  0  0  0  0  0  0  0  0
    0.2721    0.5908    2.2775 H   0  0  0  0  0  0  0  0  0  0  0  0
    0.8094   -2.8501   -0.2110 H   0  0  0  0  0  0  0  0  0  0  0  0
    3.1308   -3.6510   -0.4270 H   0  0  0  0  0  0  0  0  0  0  0  0
    5.0246   -2.0804   -0.1434 H   0  0  0  0  0  0  0  0  0  0  0  0
    4.2222    1.9848    1.5098 H   0  0  0  0  0  0  0  0  0  0  0  0
    5.7148    2.2460    0.5997 H   0  0  0  0  0  0  0  0  0  0  0  0
    4.1806    2.2392   -0.2788 H   0  0  0  0  0  0  0  0  0  0  0  0
    2.2511    1.1309    0.5633 H   0  0  0  0  0  0  0  0  0  0  0  0
  1  2  2  0
  2  3  1  0
  3  4  2  0
  4  5  1  0
  5  6  2  0
  6  7  1  0
  6  8  1  0
  8  9  2  0
  9 10  1  0
 10 11  1  0
 11 12  2  0
 12 13  1  0
 13 14  2  0
 14 15  1  0
 15 16  2  0
 16 17  1  0
 17 18  1  0
 18 19  1  0
 17 20  2  0
 12  2  1  0
  9  3  1  0
 20 13  1  0
  4 21  1  0
  5 22  1  0
  7 23  1  0
  8 24  1  0
 11 25  1  0
 14 26  1  0
 15 27  1  0
 16 28  1  0
 19 29  1  0
 19 30  1  0
 19 31  1  0
 20 32  1  0
M  END
