
     RDKit          3D

 24 25  0  0  0  0  0  0  0  0999 V2000
    1.3386   -1.5845    0.8677 O   0  0  0  0  0  0  0  0  0  0  0  0
    0.7680   -0.5843    0.4507 C   0  0  0  0  0  0  0  0  0  0  0  0
   -0.6984   -0.5385    0.3098 C   0  0  0  0  0  0  0  0  0  0  0  0
   -1.4819   -1.6512    0.6321 C   0  0  0  0  0  0  0  0  0  0  0  0
   -2.8683   -1.5807    0.4899 C   0  0  0  0  0  0  0  0  0  0  0  0
   -3.4567   -0.4055    0.0299 C   0  0  0  0  0  0  0  0  0  0  0  0
   -4.8144   -0.3853   -0.0921 O   0  0  0  0  0  0  0  0  0  0  0  0
   -2.6832    0.7066   -0.2924 C   0  0  0  0  0  0  0  0  0  0  0  0
   -1.2966    0.6344   -0.1499 C   0  0  0  0  0  0  0  0  0  0  0  0
   -0.5756    1.7556   -0.4778 O   0  0  0  0  0  0  0  0  0  0  0  0
    0.7906    1.6948   -0.3499 C   0  0  0  0  0  0  0  0  0  0  0  0
    1.5094    0.6421    0.0640 C   0  0  0  0  0  0  0  0  0  0  0  0
    3.0039    0.6487    0.1964 C   0  0  0  0  0  0  0  0  0  0  0  0
    3.6876   -0.1055   -0.9355 C   0  0  0  0  0  0  0  0  0  0  0  0
   -1.0177   -2.5668    0.9915 H   0  0  0  0  0  0  0  0  0  0  0  0
   -3.4875   -2.4391    0.7372 H   0  0  0  0  0  0  0  0  0  0  0  0
   -5.0909    0.4867   -0.4193 H   0  0  0  0  0  0  0  0  0  0  0  0
   -3.1371    1.6247   -0.6506 H   0  0  0  0  0  0  0  0  0  0  0  0
    1.2294    2.6413   -0.6412 H   0  0  0  0  0  0  0  0  0  0  0  0
    3.2960    0.2154    1.1604 H   0  0  0  0  0  0  0  0  0  0  0  0
    3.3761    1.6809    0.2044 H   0  0  0  0  0  0  0  0  0  0  0  0
    3.3968   -1.1609   -0.9500 H   0  0  0  0  0  0  0  0  0  0  0  0
    4.7748   -0.0592   -0.8154 H   0  0  0  0  0  0  0  0  0  0  0  0
    3.4370    0.3302   -1.9086 H   0  0  0  0  0  0  0  0  0  0  0  0
  1  2  2  0
  2  3  1  0
  3  4  2  0
  4  5  1  0
  5  6  2  0
  6  7  1  0
  6  8  1  0
  8  9  2  0
  9 10  1  0
 10 11  1  0
 11 12  2  0
 12 13  1  0
 13 14  1  0
 12  2  1  0
  9  3  1  0
  4 15  1  0
  5 16  1  0
  7 17  1  0
  8 18  1  0
 11 19  1  0
 13 20  1  0
 13 21  1  0
 14 22  1  0
 14 23  1  0
 14 24  1  0
M  END
