
     RDKit          3D

 31 33  0  0  0  0  0  0  0  0999 V2000
    0.4795   -1.9102    1.0890 O   0  0  0  0  0  0  0  0  0  0  0  0
    0.7841   -1.0362    0.2865 C   0  0  0  0  0  0  0  0  0  0  0  0
    2.0496   -0.2917    0.4149 C   0  0  0  0  0  0  0  0  0  0  0  0
    2.9072   -0.5225    1.4967 C   0  0  0  0  0  0  0  0  0  0  0  0
    4.1039    0.1904    1.5965 C   0  0  0  0  0  0  0  0  0  0  0  0
    4.4281    1.1229    0.6132 C   0  0  0  0  0  0  0  0  0  0  0  0
    5.5865    1.8395    0.6720 O   0  0  0  0  0  0  0  0  0  0  0  0
    3.5795    1.3547   -0.4655 C   0  0  0  0  0  0  0  0  0  0  0  0
    2.3848    0.6432   -0.5629 C   0  0  0  0  0  0  0  0  0  0  0  0
    1.5838    0.9035   -1.6458 O   0  0  0  0  0  0  0  0  0  0  0  0
    0.3896    0.2304   -1.7304 C   0  0  0  0  0  0  0  0  0  0  0  0
   -0.0795   -0.6804   -0.8655 C   0  0  0  0  0  0  0  0  0  0  0  0
   -1.3914   -1.3904   -1.0246 C   0  0  0  0  0  0  0  0  0  0  0  0
   -2.5228   -0.7116   -0.2863 C   0  0  0  0  0  0  0  0  0  0  0  0
   -2.7785   -1.0166    1.0579 C   0  0  0  0  0  0  0  0  0  0  0  0
   -3.8106   -0.3771    1.7461 C   0  0  0  0  0  0  0  0  0  0  0  0
   -4.5950    0.5759    1.0998 C   0  0  0  0  0  0  0  0  0  0  0  0
   -4.3468    0.8923   -0.2345 C   0  0  0  0  0  0  0  0  0  0  0  0
   -3.3145    0.2543   -0.9246 C   0  0  0  0  0  0  0  0  0  0  0  0
    2.6437   -1.2539    2.2579 H   0  0  0  0  0  0  0  0  0  0  0  0
    4.7631    0.0058    2.4393 H   0  0  0  0  0  0  0  0  0  0  0  0
    6.0758    1.5831    1.4714 H   0  0  0  0  0  0  0  0  0  0  0  0
    3.8489    2.0848   -1.2230 H   0  0  0  0  0  0  0  0  0  0  0  0
   -0.1491    0.5498   -2.6140 H   0  0  0  0  0  0  0  0  0  0  0  0
   -1.6535   -1.4567   -2.0895 H   0  0  0  0  0  0  0  0  0  0  0  0
   -1.3111   -2.4355   -0.6990 H   0  0  0  0  0  0  0  0  0  0  0  0
   -2.1686   -1.7536    1.5786 H   0  0  0  0  0  0  0  0  0  0  0  0
   -3.9986   -0.6222    2.7881 H   0  0  0  0  0  0  0  0  0  0  0  0
   -5.3977    1.0736    1.6372 H   0  0  0  0  0  0  0  0  0  0  0  0
   -4.9569    1.6380   -0.7374 H   0  0  0  0  0  0  0  0  0  0  0  0
   -3.1334    0.5162   -1.9643 H   0  0  0  0  0  0  0  0  0  0  0  0
  1  2  2  0
  2  3  1  0
  3  4  2  0
  4  5  1  0
  5  6  2  0
  6  7  1  0
  6  8  1  0
  8  9  2  0
  9 10  1  0
 10 11  1  0
 11 12  2  0
 12 13  1  0
 13 14  1  0
 14 15  2  0
 15 16  1  0
 16 17  2  0
 17 18  1  0
 18 19  2  0
 12  2  1  0
  9  3  1  0
 19 14  1  0
  4 20  1  0
  5 21  1  0
  7 22  1  0
  8 23  1  0
 11 24  1  0
 13 25  1  0
 13 26  1  0
 15 27  1  0
 16 28  1  0
 17 29  1  0
 18 30  1  0
 19 31  1  0
M  END
