
     RDKit          3D

 37 41  0  0  0  0  0  0  0  0999 V2000
   -3.7606    1.8310   -1.6784 O   0  0  0  0  0  0  0  0  0  0  0  0
   -3.3032    0.9331   -0.9783 C   0  0  0  0  0  0  0  0  0  0  0  0
   -4.2032   -0.0039   -0.2602 C   0  0  0  0  0  0  0  0  0  0  0  0
   -5.5912    0.1161   -0.3854 C   0  0  0  0  0  0  0  0  0  0  0  0
   -6.4238   -0.7670    0.3004 C   0  0  0  0  0  0  0  0  0  0  0  0
   -5.8703   -1.7588    1.1110 C   0  0  0  0  0  0  0  0  0  0  0  0
   -4.4824   -1.8760    1.2346 C   0  0  0  0  0  0  0  0  0  0  0  0
   -3.6347   -1.0120    0.5348 C   0  0  0  0  0  0  0  0  0  0  0  0
   -2.2416   -1.0875    0.6945 N   0  0  0  0  0  0  0  0  0  0  0  0
   -1.3499   -0.2741   -0.0238 C   0  0  0  0  0  0  0  0  0  0  0  0
    0.0340   -0.4180    0.1323 C   0  0  0  0  0  0  0  0  0  0  0  0
    0.9307    0.4312   -0.5370 C   0  0  0  0  0  0  0  0  0  0  0  0
    2.3735    0.2575   -0.3641 C   0  0  0  0  0  0  0  0  0  0  0  0
    3.1323   -0.8917   -0.2158 C   0  0  0  0  0  0  0  0  0  0  0  0
    4.4969   -0.5198   -0.0664 C   0  0  0  0  0  0  0  0  0  0  0  0
    5.6935   -1.2248    0.1087 C   0  0  0  0  0  0  0  0  0  0  0  0
    6.8715   -0.5631    0.2282 N   0  0  0  0  0  0  0  0  0  0  0  0
    6.8684    0.7875    0.1742 C   0  0  0  0  0  0  0  0  0  0  0  0
    5.7400    1.5760    0.0031 C   0  0  0  0  0  0  0  0  0  0  0  0
    4.5446    0.8711   -0.1177 C   0  0  0  0  0  0  0  0  0  0  0  0
    3.2554    1.3152   -0.2946 N   0  0  0  0  0  0  0  0  0  0  0  0
    0.4209    1.4403   -1.3666 C   0  0  0  0  0  0  0  0  0  0  0  0
   -0.9575    1.6092   -1.5147 C   0  0  0  0  0  0  0  0  0  0  0  0
   -1.8355    0.7598   -0.8370 C   0  0  0  0  0  0  0  0  0  0  0  0
   -6.0200    0.8958   -1.0108 H   0  0  0  0  0  0  0  0  0  0  0  0
   -7.5035   -0.6769    0.2082 H   0  0  0  0  0  0  0  0  0  0  0  0
   -6.5220   -2.4393    1.6541 H   0  0  0  0  0  0  0  0  0  0  0  0
   -4.0730   -2.6453    1.8837 H   0  0  0  0  0  0  0  0  0  0  0  0
   -1.8723   -1.9519    1.0699 H   0  0  0  0  0  0  0  0  0  0  0  0
    0.4189   -1.1899    0.7942 H   0  0  0  0  0  0  0  0  0  0  0  0
    2.7483   -1.9037   -0.2253 H   0  0  0  0  0  0  0  0  0  0  0  0
    5.7408   -2.3064    0.1578 H   0  0  0  0  0  0  0  0  0  0  0  0
    7.8483    1.2472    0.2773 H   0  0  0  0  0  0  0  0  0  0  0  0
    5.7944    2.6558   -0.0331 H   0  0  0  0  0  0  0  0  0  0  0  0
    2.9898    2.2884   -0.3444 H   0  0  0  0  0  0  0  0  0  0  0  0
    1.0865    2.0981   -1.9204 H   0  0  0  0  0  0  0  0  0  0  0  0
   -1.3444    2.3970   -2.1574 H   0  0  0  0  0  0  0  0  0  0  0  0
  1  2  2  0
  2  3  1  0
  3  4  2  0
  4  5  1  0
  5  6  2  0
  6  7  1  0
  7  8  2  0
  8  9  1  0
  9 10  1  0
 10 11  2  0
 11 12  1  0
 12 13  1  0
 13 14  2  0
 14 15  1  0
 15 16  2  0
 16 17  1  0
 17 18  2  0
 18 19  1  0
 19 20  2  0
 20 21  1  0
 12 22  2  0
 22 23  1  0
 23 24  2  0
 24  2  1  0
  8  3  1  0
 24 10  1  0
 21 13  1  0
 20 15  1  0
  4 25  1  0
  5 26  1  0
  6 27  1  0
  7 28  1  0
  9 29  1  0
 11 30  1  0
 14 31  1  0
 16 32  1  0
 18 33  1  0
 19 34  1  0
 21 35  1  0
 22 36  1  0
 23 37  1  0
M  END
