
     RDKit          3D

 42 46  0  0  0  0  0  0  0  0999 V2000
   -4.8979   -2.6729    0.2876 O   0  0  0  0  0  0  0  0  0  0  0  0
   -4.4170   -1.6111   -0.0938 C   0  0  0  0  0  0  0  0  0  0  0  0
   -5.2748   -0.5665   -0.7086 C   0  0  0  0  0  0  0  0  0  0  0  0
   -6.6466   -0.7866   -0.8709 C   0  0  0  0  0  0  0  0  0  0  0  0
   -7.4418    0.2097   -1.4373 C   0  0  0  0  0  0  0  0  0  0  0  0
   -6.8681    1.4185   -1.8319 C   0  0  0  0  0  0  0  0  0  0  0  0
   -5.4960    1.6345   -1.6705 C   0  0  0  0  0  0  0  0  0  0  0  0
   -4.6824    0.6364   -1.1248 C   0  0  0  0  0  0  0  0  0  0  0  0
   -3.3134    0.8633   -0.9117 N   0  0  0  0  0  0  0  0  0  0  0  0
   -2.4507   -0.1203   -0.4013 C   0  0  0  0  0  0  0  0  0  0  0  0
   -1.0840    0.1389   -0.2458 C   0  0  0  0  0  0  0  0  0  0  0  0
   -0.2228   -0.8174    0.3226 C   0  0  0  0  0  0  0  0  0  0  0  0
    1.2051   -0.5366    0.4717 C   0  0  0  0  0  0  0  0  0  0  0  0
    1.7720   -0.2563    1.7148 C   0  0  0  0  0  0  0  0  0  0  0  0
    3.1381    0.0164    1.8137 C   0  0  0  0  0  0  0  0  0  0  0  0
    3.9336    0.0025    0.6672 C   0  0  0  0  0  0  0  0  0  0  0  0
    5.3891    0.2877    0.7123 C   0  0  0  0  0  0  0  0  0  0  0  0
    6.1910    0.2396   -0.4304 C   0  0  0  0  0  0  0  0  0  0  0  0
    7.5526    0.5194   -0.3305 C   0  0  0  0  0  0  0  0  0  0  0  0
    8.0894    0.8441    0.9072 C   0  0  0  0  0  0  0  0  0  0  0  0
    7.2388    0.8728    1.9971 C   0  0  0  0  0  0  0  0  0  0  0  0
    5.9155    0.6052    1.9293 N   0  0  0  0  0  0  0  0  0  0  0  0
    3.3979   -0.2741   -0.5540 N   0  0  0  0  0  0  0  0  0  0  0  0
    2.0685   -0.5328   -0.6197 C   0  0  0  0  0  0  0  0  0  0  0  0
   -0.7597   -2.0423    0.7504 C   0  0  0  0  0  0  0  0  0  0  0  0
   -2.1234   -2.3089    0.6156 C   0  0  0  0  0  0  0  0  0  0  0  0
   -2.9629   -1.3463    0.0482 C   0  0  0  0  0  0  0  0  0  0  0  0
   -7.0926   -1.7265   -0.5538 H   0  0  0  0  0  0  0  0  0  0  0  0
   -8.5093    0.0453   -1.5627 H   0  0  0  0  0  0  0  0  0  0  0  0
   -7.4929    2.1989   -2.2607 H   0  0  0  0  0  0  0  0  0  0  0  0
   -5.0728    2.5891   -1.9712 H   0  0  0  0  0  0  0  0  0  0  0  0
   -2.8914    1.6286   -1.4215 H   0  0  0  0  0  0  0  0  0  0  0  0
   -0.6802    1.1007   -0.5562 H   0  0  0  0  0  0  0  0  0  0  0  0
    1.1578   -0.2403    2.6121 H   0  0  0  0  0  0  0  0  0  0  0  0
    3.5738    0.2417    2.7836 H   0  0  0  0  0  0  0  0  0  0  0  0
    5.7608   -0.0165   -1.3946 H   0  0  0  0  0  0  0  0  0  0  0  0
    8.1835    0.4828   -1.2136 H   0  0  0  0  0  0  0  0  0  0  0  0
    9.1441    1.0677    1.0181 H   0  0  0  0  0  0  0  0  0  0  0  0
    7.6093    1.1210    2.9871 H   0  0  0  0  0  0  0  0  0  0  0  0
    1.7035   -0.7523   -1.6209 H   0  0  0  0  0  0  0  0  0  0  0  0
   -0.1146   -2.7999    1.1937 H   0  0  0  0  0  0  0  0  0  0  0  0
   -2.5289   -3.2598    0.9543 H   0  0  0  0  0  0  0  0  0  0  0  0
  1  2  2  0
  2  3  1  0
  3  4  2  0
  4  5  1  0
  5  6  2  0
  6  7  1  0
  7  8  2  0
  8  9  1  0
  9 10  1  0
 10 11  2  0
 11 12  1  0
 12 13  1  0
 13 14  2  0
 14 15  1  0
 15 16  2  0
 16 17  1  0
 17 18  2  0
 18 19  1  0
 19 20  2  0
 20 21  1  0
 21 22  2  0
 16 23  1  0
 23 24  2  0
 12 25  2  0
 25 26  1  0
 26 27  2  0
 27  2  1  0
  8  3  1  0
 27 10  1  0
 24 13  1  0
 22 17  1  0
  4 28  1  0
  5 29  1  0
  6 30  1  0
  7 31  1  0
  9 32  1  0
 11 33  1  0
 14 34  1  0
 15 35  1  0
 18 36  1  0
 19 37  1  0
 20 38  1  0
 21 39  1  0
 24 40  1  0
 25 41  1  0
 26 42  1  0
M  END
