
     RDKit          3D

 34 39  0  0  0  0  0  0  0  0999 V2000
   -5.1819    1.3843   -1.4114 Si  0  0  0  0  0  4  0  0  0  0  0  0
   -6.6157    0.6574   -0.3718 C   0  0  0  0  0  0  0  0  0  0  0  0
   -6.1669   -0.0699    0.6743 C   0  0  0  0  0  0  0  0  0  0  0  0
   -4.7416   -0.1035    0.7271 C   0  0  0  0  0  0  0  0  0  0  0  0
   -3.7835   -0.9069    1.8837 S   0  0  0  0  0  0  0  0  0  0  0  0
   -2.3407   -0.3397    1.0735 C   0  0  0  0  0  0  0  0  0  0  0  0
   -2.6225    0.4261   -0.0268 C   0  0  0  0  0  0  0  0  0  0  0  0
   -1.4407    0.8246   -0.5952 N   0  0  0  0  0  0  0  0  0  0  0  0
   -0.3985    0.3123    0.1429 C   0  0  0  0  0  0  0  0  0  0  0  0
    0.9835    0.4507   -0.0515 C   0  0  0  0  0  0  0  0  0  0  0  0
    1.8555   -0.1812    0.8533 C   0  0  0  0  0  0  0  0  0  0  0  0
    1.3338   -0.9240    1.9207 C   0  0  0  0  0  0  0  0  0  0  0  0
   -0.0482   -1.0567    2.1090 C   0  0  0  0  0  0  0  0  0  0  0  0
   -0.9208   -0.4284    1.2047 C   0  0  0  0  0  0  0  0  0  0  0  0
    3.2974   -0.0590    0.6792 C   0  0  0  0  0  0  0  0  0  0  0  0
    4.3141    0.6513    1.8783 S   0  0  0  0  0  0  0  0  0  0  0  0
    5.7414    0.4304    0.9385 C   0  0  0  0  0  0  0  0  0  0  0  0
    5.3872   -0.1650   -0.2220 C   0  0  0  0  0  0  0  0  0  0  0  0
    6.1204   -0.5884   -1.3560 C   0  0  0  0  0  0  0  0  0  0  0  0
    5.3038   -1.1733   -2.3306 C   0  0  0  0  0  0  0  0  0  0  0  0
    3.5864   -1.2618   -1.9602 S   0  0  0  0  0  0  0  0  0  0  0  0
    4.0345   -0.4551   -0.4053 C   0  0  0  0  0  0  0  0  0  0  0  0
   -3.9991    0.5623   -0.2268 C   0  0  0  0  0  0  0  0  0  0  0  0
   -5.1672    0.8128   -2.7806 H   0  0  0  0  0  0  0  0  0  0  0  0
   -5.1716    2.8668   -1.3504 H   0  0  0  0  0  0  0  0  0  0  0  0
   -7.6417    0.8455   -0.6453 H   0  0  0  0  0  0  0  0  0  0  0  0
   -6.7999   -0.5729    1.3946 H   0  0  0  0  0  0  0  0  0  0  0  0
   -1.3764    1.4005   -1.4237 H   0  0  0  0  0  0  0  0  0  0  0  0
    1.3692    1.0373   -0.8804 H   0  0  0  0  0  0  0  0  0  0  0  0
    2.0031   -1.4193    2.6215 H   0  0  0  0  0  0  0  0  0  0  0  0
   -0.4367   -1.6377    2.9402 H   0  0  0  0  0  0  0  0  0  0  0  0
    6.7112    0.7435    1.2981 H   0  0  0  0  0  0  0  0  0  0  0  0
    7.1916   -0.4863   -1.4803 H   0  0  0  0  0  0  0  0  0  0  0  0
    5.6207   -1.5768   -3.2827 H   0  0  0  0  0  0  0  0  0  0  0  0
  1  2  1  0
  2  3  2  0
  3  4  1  0
  4  5  1  0
  5  6  1  0
  6  7  2  0
  7  8  1  0
  8  9  1  0
  9 10  2  0
 10 11  1  0
 11 12  2  0
 12 13  1  0
 13 14  2  0
 11 15  1  0
 15 16  1  0
 16 17  1  0
 17 18  2  0
 18 19  1  0
 19 20  2  0
 20 21  1  0
 21 22  1  0
  7 23  1  0
 23  1  1  0
 23  4  2  0
 14  6  1  0
 22 15  2  0
 14  9  1  0
 22 18  1  0
  1 24  1  0
  1 25  1  0
  2 26  1  0
  3 27  1  0
  8 28  1  0
 10 29  1  0
 12 30  1  0
 13 31  1  0
 17 32  1  0
 19 33  1  0
 20 34  1  0
M  END
