
     RDKit          3D

 36 40  0  0  0  0  0  0  0  0999 V2000
   -3.0328   -2.2317    2.0109 O   0  0  0  0  0  0  0  0  0  0  0  0
   -2.7741   -1.3577    1.1896 C   0  0  0  0  0  0  0  0  0  0  0  0
   -3.8608   -0.6534    0.4638 C   0  0  0  0  0  0  0  0  0  0  0  0
   -5.1982   -0.9903    0.6973 C   0  0  0  0  0  0  0  0  0  0  0  0
   -6.2083   -0.3167    0.0121 C   0  0  0  0  0  0  0  0  0  0  0  0
   -5.8816    0.6916   -0.8953 C   0  0  0  0  0  0  0  0  0  0  0  0
   -4.5437    1.0267   -1.1262 C   0  0  0  0  0  0  0  0  0  0  0  0
   -3.5191    0.3437   -0.4638 C   0  0  0  0  0  0  0  0  0  0  0  0
   -2.1761    0.7119   -0.6468 N   0  0  0  0  0  0  0  0  0  0  0  0
   -1.1122    0.0217   -0.0423 C   0  0  0  0  0  0  0  0  0  0  0  0
    0.2144    0.3934   -0.2931 C   0  0  0  0  0  0  0  0  0  0  0  0
    1.2892   -0.2543    0.3456 C   0  0  0  0  0  0  0  0  0  0  0  0
    2.6800    0.1384    0.0654 C   0  0  0  0  0  0  0  0  0  0  0  0
    3.1039    1.4682    0.2624 C   0  0  0  0  0  0  0  0  0  0  0  0
    4.4192    1.8848    0.0093 C   0  0  0  0  0  0  0  0  0  0  0  0
    5.2960    0.9061   -0.4533 C   0  0  0  0  0  0  0  0  0  0  0  0
    6.6174    0.9160   -0.8011 N   0  0  0  0  0  0  0  0  0  0  0  0
    7.0405   -0.2942   -1.2004 N   0  0  0  0  0  0  0  0  0  0  0  0
    6.0068   -1.1233   -1.1191 N   0  0  0  0  0  0  0  0  0  0  0  0
    4.9276   -0.4144   -0.6632 C   0  0  0  0  0  0  0  0  0  0  0  0
    3.6088   -0.8128   -0.4032 C   0  0  0  0  0  0  0  0  0  0  0  0
    1.0024   -1.2810    1.2611 C   0  0  0  0  0  0  0  0  0  0  0  0
   -0.3163   -1.6448    1.5415 C   0  0  0  0  0  0  0  0  0  0  0  0
   -1.3664   -0.9876    0.8970 C   0  0  0  0  0  0  0  0  0  0  0  0
   -5.4502   -1.7707    1.4117 H   0  0  0  0  0  0  0  0  0  0  0  0
   -7.2496   -0.5736    0.1913 H   0  0  0  0  0  0  0  0  0  0  0  0
   -6.6718    1.2236   -1.4200 H   0  0  0  0  0  0  0  0  0  0  0  0
   -4.3125    1.8263   -1.8246 H   0  0  0  0  0  0  0  0  0  0  0  0
   -1.9610    1.2340   -1.4870 H   0  0  0  0  0  0  0  0  0  0  0  0
    0.4201    1.1922   -1.0023 H   0  0  0  0  0  0  0  0  0  0  0  0
    2.3947    2.2061    0.6384 H   0  0  0  0  0  0  0  0  0  0  0  0
    4.7276    2.9117    0.1723 H   0  0  0  0  0  0  0  0  0  0  0  0
    7.2761    1.6845   -0.7940 H   0  0  0  0  0  0  0  0  0  0  0  0
    3.3222   -1.8454   -0.5757 H   0  0  0  0  0  0  0  0  0  0  0  0
    1.8099   -1.7962    1.7791 H   0  0  0  0  0  0  0  0  0  0  0  0
   -0.5220   -2.4329    2.2626 H   0  0  0  0  0  0  0  0  0  0  0  0
  1  2  2  0
  2  3  1  0
  3  4  2  0
  4  5  1  0
  5  6  2  0
  6  7  1  0
  7  8  2  0
  8  9  1  0
  9 10  1  0
 10 11  2  0
 11 12  1  0
 12 13  1  0
 13 14  2  0
 14 15  1  0
 15 16  2  0
 16 17  1  0
 17 18  1  0
 18 19  2  0
 19 20  1  0
 20 21  2  0
 12 22  2  0
 22 23  1  0
 23 24  2  0
 24  2  1  0
  8  3  1  0
 24 10  1  0
 21 13  1  0
 20 16  1  0
  4 25  1  0
  5 26  1  0
  6 27  1  0
  7 28  1  0
  9 29  1  0
 11 30  1  0
 14 31  1  0
 15 32  1  0
 17 33  1  0
 21 34  1  0
 22 35  1  0
 23 36  1  0
M  END
