
     RDKit          3D

 43 48  0  0  0  0  0  0  0  0999 V2000
   -4.8867   -2.4024    1.4701 O   0  0  0  0  0  0  0  0  0  0  0  0
   -4.4868   -1.4733    0.7756 C   0  0  0  0  0  0  0  0  0  0  0  0
   -5.4368   -0.6650   -0.0297 C   0  0  0  0  0  0  0  0  0  0  0  0
   -6.8062   -0.9489    0.0007 C   0  0  0  0  0  0  0  0  0  0  0  0
   -7.6854   -0.1855   -0.7659 C   0  0  0  0  0  0  0  0  0  0  0  0
   -7.1959    0.8504   -1.5621 C   0  0  0  0  0  0  0  0  0  0  0  0
   -5.8265    1.1317   -1.5908 C   0  0  0  0  0  0  0  0  0  0  0  0
   -4.9355    0.3889   -0.8103 C   0  0  0  0  0  0  0  0  0  0  0  0
   -3.5539    0.6297   -0.8717 N   0  0  0  0  0  0  0  0  0  0  0  0
   -2.6261   -0.0601   -0.0748 C   0  0  0  0  0  0  0  0  0  0  0  0
   -1.2613    0.2463   -0.1382 C   0  0  0  0  0  0  0  0  0  0  0  0
   -0.3132   -0.4743    0.6132 C   0  0  0  0  0  0  0  0  0  0  0  0
    1.1177   -0.1360    0.5445 C   0  0  0  0  0  0  0  0  0  0  0  0
    1.5650    1.1524    0.8453 C   0  0  0  0  0  0  0  0  0  0  0  0
    2.9247    1.4831    0.7825 C   0  0  0  0  0  0  0  0  0  0  0  0
    3.8899    0.5149    0.4083 C   0  0  0  0  0  0  0  0  0  0  0  0
    3.4342   -0.7679    0.1097 C   0  0  0  0  0  0  0  0  0  0  0  0
    2.0651   -1.1048    0.1739 C   0  0  0  0  0  0  0  0  0  0  0  0
    4.7262   -1.8093   -0.3240 S   0  0  0  0  0  0  0  0  0  0  0  0
    5.9086   -0.5837   -0.1214 C   0  0  0  0  0  0  0  0  0  0  0  0
    7.2990   -0.7130   -0.3144 C   0  0  0  0  0  0  0  0  0  0  0  0
    8.1200    0.3960   -0.1026 C   0  0  0  0  0  0  0  0  0  0  0  0
    7.5752    1.6083    0.2922 C   0  0  0  0  0  0  0  0  0  0  0  0
    6.1954    1.7309    0.4819 C   0  0  0  0  0  0  0  0  0  0  0  0
    5.3314    0.6230    0.2753 C   0  0  0  0  0  0  0  0  0  0  0  0
   -0.7655   -1.5287    1.4247 C   0  0  0  0  0  0  0  0  0  0  0  0
   -2.1209   -1.8593    1.4833 C   0  0  0  0  0  0  0  0  0  0  0  0
   -3.0430   -1.1303    0.7294 C   0  0  0  0  0  0  0  0  0  0  0  0
   -7.1837   -1.7629    0.6154 H   0  0  0  0  0  0  0  0  0  0  0  0
   -8.7505   -0.4036   -0.7475 H   0  0  0  0  0  0  0  0  0  0  0  0
   -7.8825    1.4372   -2.1681 H   0  0  0  0  0  0  0  0  0  0  0  0
   -5.4650    1.9326   -2.2300 H   0  0  0  0  0  0  0  0  0  0  0  0
   -3.2606    1.5193   -1.2545 H   0  0  0  0  0  0  0  0  0  0  0  0
   -0.9230    1.0475   -0.7920 H   0  0  0  0  0  0  0  0  0  0  0  0
    0.8562    1.9210    1.1491 H   0  0  0  0  0  0  0  0  0  0  0  0
    3.2374    2.4948    1.0284 H   0  0  0  0  0  0  0  0  0  0  0  0
    1.7491   -2.1153   -0.0761 H   0  0  0  0  0  0  0  0  0  0  0  0
    7.7280   -1.6622   -0.6234 H   0  0  0  0  0  0  0  0  0  0  0  0
    9.1938    0.3053   -0.2487 H   0  0  0  0  0  0  0  0  0  0  0  0
    8.2210    2.4676    0.4556 H   0  0  0  0  0  0  0  0  0  0  0  0
    5.7847    2.6884    0.7919 H   0  0  0  0  0  0  0  0  0  0  0  0
   -0.0594   -2.1010    2.0244 H   0  0  0  0  0  0  0  0  0  0  0  0
   -2.4541   -2.6817    2.1125 H   0  0  0  0  0  0  0  0  0  0  0  0
  1  2  2  0
  2  3  1  0
  3  4  2  0
  4  5  1  0
  5  6  2  0
  6  7  1  0
  7  8  2  0
  8  9  1  0
  9 10  1  0
 10 11  2  0
 11 12  1  0
 12 13  1  0
 13 14  2  0
 14 15  1  0
 15 16  2  0
 16 17  1  0
 17 18  2  0
 17 19  1  0
 19 20  1  0
 20 21  2  0
 21 22  1  0
 22 23  2  0
 23 24  1  0
 24 25  2  0
 12 26  2  0
 26 27  1  0
 27 28  2  0
 28  2  1  0
  8  3  1  0
 28 10  1  0
 18 13  1  0
 25 20  1  0
 25 16  1  0
  4 29  1  0
  5 30  1  0
  6 31  1  0
  7 32  1  0
  9 33  1  0
 11 34  1  0
 14 35  1  0
 15 36  1  0
 18 37  1  0
 21 38  1  0
 22 39  1  0
 23 40  1  0
 24 41  1  0
 26 42  1  0
 27 43  1  0
M  END
