
     RDKit          3D

 30 33  0  0  0  0  0  0  0  0999 V2000
    1.8363   -2.6933    0.7838 O   0  0  0  0  0  0  0  0  0  0  0  0
    1.5797   -1.5429    0.4437 C   0  0  0  0  0  0  0  0  0  0  0  0
    2.6668   -0.5852    0.1213 C   0  0  0  0  0  0  0  0  0  0  0  0
    4.0047   -0.9872    0.1922 C   0  0  0  0  0  0  0  0  0  0  0  0
    5.0150   -0.0749   -0.1084 C   0  0  0  0  0  0  0  0  0  0  0  0
    4.6879    1.2322   -0.4709 C   0  0  0  0  0  0  0  0  0  0  0  0
    3.3495    1.6313   -0.5404 C   0  0  0  0  0  0  0  0  0  0  0  0
    2.3249    0.7210   -0.2641 C   0  0  0  0  0  0  0  0  0  0  0  0
    0.9803    1.1276   -0.2779 N   0  0  0  0  0  0  0  0  0  0  0  0
   -0.0836    0.2389   -0.0513 C   0  0  0  0  0  0  0  0  0  0  0  0
   -1.4111    0.6811   -0.1193 C   0  0  0  0  0  0  0  0  0  0  0  0
   -2.4787   -0.1905    0.1586 C   0  0  0  0  0  0  0  0  0  0  0  0
   -3.8555    0.2594    0.0723 C   0  0  0  0  0  0  0  0  0  0  0  0
   -5.0454   -0.4346   -0.2456 C   0  0  0  0  0  0  0  0  0  0  0  0
   -6.1225    0.3534   -0.2014 N   0  0  0  0  0  0  0  0  0  0  0  0
   -5.6444    1.6010    0.1634 O   0  0  0  0  0  0  0  0  0  0  0  0
   -4.2990    1.5362    0.3272 C   0  0  0  0  0  0  0  0  0  0  0  0
   -2.1982   -1.5165    0.5198 C   0  0  0  0  0  0  0  0  0  0  0  0
   -0.8780   -1.9624    0.6160 C   0  0  0  0  0  0  0  0  0  0  0  0
    0.1718   -1.0835    0.3394 C   0  0  0  0  0  0  0  0  0  0  0  0
    4.2571   -2.0042    0.4836 H   0  0  0  0  0  0  0  0  0  0  0  0
    6.0568   -0.3815   -0.0528 H   0  0  0  0  0  0  0  0  0  0  0  0
    5.4784    1.9452   -0.6936 H   0  0  0  0  0  0  0  0  0  0  0  0
    3.1184    2.6586   -0.8090 H   0  0  0  0  0  0  0  0  0  0  0  0
    0.7708    1.9766   -0.7879 H   0  0  0  0  0  0  0  0  0  0  0  0
   -1.6078    1.7118   -0.4034 H   0  0  0  0  0  0  0  0  0  0  0  0
   -5.1767   -1.4736   -0.5132 H   0  0  0  0  0  0  0  0  0  0  0  0
   -3.8293    2.4611    0.6272 H   0  0  0  0  0  0  0  0  0  0  0  0
   -2.9982   -2.2165    0.7521 H   0  0  0  0  0  0  0  0  0  0  0  0
   -0.6698   -2.9888    0.9111 H   0  0  0  0  0  0  0  0  0  0  0  0
  1  2  2  0
  2  3  1  0
  3  4  2  0
  4  5  1  0
  5  6  2  0
  6  7  1  0
  7  8  2  0
  8  9  1  0
  9 10  1  0
 10 11  2  0
 11 12  1  0
 12 13  1  0
 13 14  1  0
 14 15  2  0
 15 16  1  0
 16 17  1  0
 12 18  2  0
 18 19  1  0
 19 20  2  0
 20  2  1  0
  8  3  1  0
 20 10  1  0
 17 13  2  0
  4 21  1  0
  5 22  1  0
  6 23  1  0
  7 24  1  0
  9 25  1  0
 11 26  1  0
 14 27  1  0
 17 28  1  0
 18 29  1  0
 19 30  1  0
M  END
