
     RDKit          3D

 30 33  0  0  0  0  0  0  0  0999 V2000
   -1.9922   -2.5190   -0.9756 O   0  0  0  0  0  0  0  0  0  0  0  0
   -1.6939   -1.4294   -0.4969 C   0  0  0  0  0  0  0  0  0  0  0  0
   -2.7479   -0.4759   -0.0691 C   0  0  0  0  0  0  0  0  0  0  0  0
   -4.0990   -0.8158   -0.1942 C   0  0  0  0  0  0  0  0  0  0  0  0
   -5.0782    0.0919    0.2067 C   0  0  0  0  0  0  0  0  0  0  0  0
   -4.7069    1.3337    0.7230 C   0  0  0  0  0  0  0  0  0  0  0  0
   -3.3555    1.6710    0.8465 C   0  0  0  0  0  0  0  0  0  0  0  0
   -2.3622    0.7616    0.4703 C   0  0  0  0  0  0  0  0  0  0  0  0
   -1.0040    1.1140    0.5381 N   0  0  0  0  0  0  0  0  0  0  0  0
    0.0292    0.2169    0.2171 C   0  0  0  0  0  0  0  0  0  0  0  0
    1.3714    0.5996    0.3462 C   0  0  0  0  0  0  0  0  0  0  0  0
    2.4100   -0.2716   -0.0252 C   0  0  0  0  0  0  0  0  0  0  0  0
    3.8175    0.0972    0.1105 C   0  0  0  0  0  0  0  0  0  0  0  0
    4.2910    1.3964    0.1455 C   0  0  0  0  0  0  0  0  0  0  0  0
    6.0006    1.4021    0.3071 S   0  0  0  0  0  0  0  0  0  0  0  0
    5.9836   -0.3105    0.3031 C   0  0  0  0  0  0  0  0  0  0  0  0
    4.8034   -0.8773    0.1915 N   0  0  0  0  0  0  0  0  0  0  0  0
    2.0812   -1.5377   -0.5349 C   0  0  0  0  0  0  0  0  0  0  0  0
    0.7482   -1.9217   -0.6940 C   0  0  0  0  0  0  0  0  0  0  0  0
   -0.2710   -1.0405   -0.3280 C   0  0  0  0  0  0  0  0  0  0  0  0
   -4.3855   -1.7812   -0.6054 H   0  0  0  0  0  0  0  0  0  0  0  0
   -6.1298   -0.1669    0.1096 H   0  0  0  0  0  0  0  0  0  0  0  0
   -5.4728    2.0448    1.0242 H   0  0  0  0  0  0  0  0  0  0  0  0
   -3.0892    2.6501    1.2355 H   0  0  0  0  0  0  0  0  0  0  0  0
   -0.7686    1.8815    1.1546 H   0  0  0  0  0  0  0  0  0  0  0  0
    1.5985    1.5812    0.7516 H   0  0  0  0  0  0  0  0  0  0  0  0
    3.7481    2.3272    0.0770 H   0  0  0  0  0  0  0  0  0  0  0  0
    6.8957   -0.8871    0.3861 H   0  0  0  0  0  0  0  0  0  0  0  0
    2.8686   -2.2336   -0.8219 H   0  0  0  0  0  0  0  0  0  0  0  0
    0.5096   -2.9011   -1.1023 H   0  0  0  0  0  0  0  0  0  0  0  0
  1  2  2  0
  2  3  1  0
  3  4  2  0
  4  5  1  0
  5  6  2  0
  6  7  1  0
  7  8  2  0
  8  9  1  0
  9 10  1  0
 10 11  2  0
 11 12  1  0
 12 13  1  0
 13 14  2  0
 14 15  1  0
 15 16  1  0
 16 17  2  0
 12 18  2  0
 18 19  1  0
 19 20  2  0
 20  2  1  0
  8  3  1  0
 20 10  1  0
 17 13  1  0
  4 21  1  0
  5 22  1  0
  6 23  1  0
  7 24  1  0
  9 25  1  0
 11 26  1  0
 14 27  1  0
 16 28  1  0
 18 29  1  0
 19 30  1  0
M  END
