
     RDKit          3D

 31 33  0  0  0  0  0  0  0  0999 V2000
    1.3696    0.7128    2.4339 O   0  0  0  0  0  0  0  0  0  0  0  0
    1.6458    0.4386    1.2818 C   0  0  0  0  0  0  0  0  0  0  0  0
    2.9907    0.0858    0.8297 C   0  0  0  0  0  0  0  0  0  0  0  0
    4.1601   -0.0869    1.5438 C   0  0  0  0  0  0  0  0  0  0  0  0
    5.3100   -0.4113    0.8167 C   0  0  0  0  0  0  0  0  0  0  0  0
    5.2643   -0.5486   -0.5868 C   0  0  0  0  0  0  0  0  0  0  0  0
    4.0681   -0.3636   -1.2874 C   0  0  0  0  0  0  0  0  0  0  0  0
    2.9466   -0.0475   -0.5461 C   0  0  0  0  0  0  0  0  0  0  0  0
    1.5725    0.2140   -0.9679 C   0  0  0  0  0  0  0  0  0  0  0  0
    1.1992    0.2200   -2.1258 O   0  0  0  0  0  0  0  0  0  0  0  0
    0.8523    0.4406    0.1698 N   0  0  0  0  0  0  0  0  0  0  0  0
   -0.5341    0.8191    0.1827 C   0  0  0  0  0  0  0  0  0  0  0  0
   -1.3038   -0.3059   -0.3210 N   0  0  0  0  0  0  0  0  0  0  0  0
   -2.6943   -0.1607   -0.4396 C   0  0  0  0  0  0  0  0  0  0  0  0
   -3.3723   -0.9701   -1.3641 C   0  0  0  0  0  0  0  0  0  0  0  0
   -4.7638   -0.9255   -1.4898 C   0  0  0  0  0  0  0  0  0  0  0  0
   -5.5087   -0.0888   -0.6660 C   0  0  0  0  0  0  0  0  0  0  0  0
   -4.8609    0.6871    0.2903 C   0  0  0  0  0  0  0  0  0  0  0  0
   -3.4671    0.6384    0.4115 C   0  0  0  0  0  0  0  0  0  0  0  0
    4.1815    0.0256    2.6230 H   0  0  0  0  0  0  0  0  0  0  0  0
    6.2541   -0.5587    1.3387 H   0  0  0  0  0  0  0  0  0  0  0  0
    6.1739   -0.8005   -1.1297 H   0  0  0  0  0  0  0  0  0  0  0  0
    4.0194   -0.4631   -2.3669 H   0  0  0  0  0  0  0  0  0  0  0  0
   -0.6567    1.6896   -0.4723 H   0  0  0  0  0  0  0  0  0  0  0  0
   -0.8228    1.0838    1.2043 H   0  0  0  0  0  0  0  0  0  0  0  0
   -0.9070   -0.6225   -1.2060 H   0  0  0  0  0  0  0  0  0  0  0  0
   -2.8142   -1.6491   -2.0047 H   0  0  0  0  0  0  0  0  0  0  0  0
   -5.2616   -1.5527   -2.2243 H   0  0  0  0  0  0  0  0  0  0  0  0
   -6.5909   -0.0547   -0.7562 H   0  0  0  0  0  0  0  0  0  0  0  0
   -5.4391    1.3226    0.9560 H   0  0  0  0  0  0  0  0  0  0  0  0
   -3.0107    1.2320    1.1970 H   0  0  0  0  0  0  0  0  0  0  0  0
  1  2  2  0
  2  3  1  0
  3  4  2  0
  4  5  1  0
  5  6  2  0
  6  7  1  0
  7  8  2  0
  8  9  1  0
  9 10  2  0
  9 11  1  0
 11 12  1  0
 12 13  1  0
 13 14  1  0
 14 15  2  0
 15 16  1  0
 16 17  2  0
 17 18  1  0
 18 19  2  0
 11  2  1  0
 19 14  1  0
  8  3  1  0
  4 20  1  0
  5 21  1  0
  6 22  1  0
  7 23  1  0
 12 24  1  0
 12 25  1  0
 13 26  1  0
 15 27  1  0
 16 28  1  0
 17 29  1  0
 18 30  1  0
 19 31  1  0
M  END
