
     RDKit          3D

 35 38  0  0  0  0  0  0  0  0999 V2000
    1.3659   -4.4975    0.1012 O   0  0  0  0  0  0  0  0  0  0  0  0
    0.9794   -3.3332    0.0376 C   0  0  0  0  0  0  0  0  0  0  0  0
    1.9096   -2.1885   -0.2687 C   0  0  0  0  0  0  0  0  0  0  0  0
    1.4978   -0.9080    0.4641 C   0  0  0  0  0  0  0  0  0  0  0  0
    2.4203    0.2282    0.0589 C   0  0  0  0  0  0  0  0  0  0  0  0
    2.4749    0.7251   -1.2497 C   0  0  0  0  0  0  0  0  0  0  0  0
    3.3430    1.7676   -1.5607 C   0  0  0  0  0  0  0  0  0  0  0  0
    4.1352    2.2847   -0.5507 C   0  0  0  0  0  0  0  0  0  0  0  0
    4.1141    1.8362    0.7218 N   0  0  0  0  0  0  0  0  0  0  0  0
    3.2618    0.8232    0.9967 C   0  0  0  0  0  0  0  0  0  0  0  0
    0.0115   -0.6336    0.2901 C   0  0  0  0  0  0  0  0  0  0  0  0
   -0.5399    0.6554    0.3803 C   0  0  0  0  0  0  0  0  0  0  0  0
   -1.9204    0.8418    0.2998 C   0  0  0  0  0  0  0  0  0  0  0  0
   -2.7722   -0.2594    0.1861 C   0  0  0  0  0  0  0  0  0  0  0  0
   -2.2438   -1.5451    0.1116 C   0  0  0  0  0  0  0  0  0  0  0  0
   -0.8603   -1.7264    0.1617 C   0  0  0  0  0  0  0  0  0  0  0  0
   -0.3492   -3.0267    0.1312 N   0  0  0  0  0  0  0  0  0  0  0  0
   -4.1389   -0.1518    0.1437 O   0  0  0  0  0  0  0  0  0  0  0  0
   -4.5748    1.1423    0.5773 C   0  0  0  0  0  0  0  0  0  0  0  0
   -3.7350    2.2345   -0.0639 C   0  0  0  0  0  0  0  0  0  0  0  0
   -2.3704    2.1358    0.3593 O   0  0  0  0  0  0  0  0  0  0  0  0
    2.9264   -2.4778    0.0243 H   0  0  0  0  0  0  0  0  0  0  0  0
    1.9038   -2.0597   -1.3586 H   0  0  0  0  0  0  0  0  0  0  0  0
    1.6284   -1.0887    1.5417 H   0  0  0  0  0  0  0  0  0  0  0  0
    1.8387    0.3123   -2.0291 H   0  0  0  0  0  0  0  0  0  0  0  0
    3.3984    2.1683   -2.5666 H   0  0  0  0  0  0  0  0  0  0  0  0
    4.8282    3.0987   -0.7434 H   0  0  0  0  0  0  0  0  0  0  0  0
    3.2786    0.4953    2.0332 H   0  0  0  0  0  0  0  0  0  0  0  0
    0.0934    1.5296    0.5148 H   0  0  0  0  0  0  0  0  0  0  0  0
   -2.9178   -2.3919    0.0233 H   0  0  0  0  0  0  0  0  0  0  0  0
   -0.9765   -3.8193    0.1975 H   0  0  0  0  0  0  0  0  0  0  0  0
   -5.6246    1.2526    0.2880 H   0  0  0  0  0  0  0  0  0  0  0  0
   -4.5157    1.1808    1.6721 H   0  0  0  0  0  0  0  0  0  0  0  0
   -3.7658    2.1744   -1.1590 H   0  0  0  0  0  0  0  0  0  0  0  0
   -4.1044    3.2206    0.2343 H   0  0  0  0  0  0  0  0  0  0  0  0
  1  2  2  0
  2  3  1  0
  3  4  1  0
  4  5  1  0
  5  6  2  0
  6  7  1  0
  7  8  2  0
  8  9  1  0
  9 10  2  0
  4 11  1  0
 11 12  2  0
 12 13  1  0
 13 14  2  0
 14 15  1  0
 15 16  2  0
 16 17  1  0
 14 18  1  0
 18 19  1  0
 19 20  1  0
 20 21  1  0
 17  2  1  0
 10  5  1  0
 16 11  1  0
 21 13  1  0
  3 22  1  0
  3 23  1  0
  4 24  1  0
  6 25  1  0
  7 26  1  0
  8 27  1  0
 10 28  1  0
 12 29  1  0
 15 30  1  0
 17 31  1  0
 19 32  1  0
 19 33  1  0
 20 34  1  0
 20 35  1  0
M  END
