
     RDKit          3D

 35 39  0  0  0  0  0  0  0  0999 V2000
    6.0941   -1.5375    0.5447 O   0  0  0  0  0  0  0  0  0  0  0  0
    5.5021   -0.5216    0.1986 C   0  0  0  0  0  0  0  0  0  0  0  0
    6.2574    0.6965   -0.1862 C   0  0  0  0  0  0  0  0  0  0  0  0
    5.5662    1.7797   -0.5565 C   0  0  0  0  0  0  0  0  0  0  0  0
    4.2010    1.8457   -0.6064 N   0  0  0  0  0  0  0  0  0  0  0  0
    3.4097    0.7411   -0.2596 C   0  0  0  0  0  0  0  0  0  0  0  0
    2.0116    0.8069   -0.3101 C   0  0  0  0  0  0  0  0  0  0  0  0
    1.2098   -0.2976    0.0365 C   0  0  0  0  0  0  0  0  0  0  0  0
   -0.2598   -0.1956   -0.0274 C   0  0  0  0  0  0  0  0  0  0  0  0
   -1.0789    0.8652   -0.3928 C   0  0  0  0  0  0  0  0  0  0  0  0
   -2.4388    0.4643   -0.2891 C   0  0  0  0  0  0  0  0  0  0  0  0
   -3.6720    1.0984   -0.5229 C   0  0  0  0  0  0  0  0  0  0  0  0
   -4.8742    0.4066   -0.3203 C   0  0  0  0  0  0  0  0  0  0  0  0
   -6.2576    0.6991   -0.4449 C   0  0  0  0  0  0  0  0  0  0  0  0
   -6.9313   -0.4457   -0.0827 C   0  0  0  0  0  0  0  0  0  0  0  0
   -6.0575   -1.4296    0.2586 O   0  0  0  0  0  0  0  0  0  0  0  0
   -4.8085   -0.9107    0.1139 C   0  0  0  0  0  0  0  0  0  0  0  0
   -3.6119   -1.5677    0.3544 C   0  0  0  0  0  0  0  0  0  0  0  0
   -2.4315   -0.8571    0.1452 C   0  0  0  0  0  0  0  0  0  0  0  0
   -1.1178   -1.2298    0.2948 N   0  0  0  0  0  0  0  0  0  0  0  0
    1.8526   -1.4813    0.4388 C   0  0  0  0  0  0  0  0  0  0  0  0
    3.2477   -1.5636    0.4946 C   0  0  0  0  0  0  0  0  0  0  0  0
    4.0185   -0.4554    0.1463 C   0  0  0  0  0  0  0  0  0  0  0  0
    7.3368    0.6549   -0.1502 H   0  0  0  0  0  0  0  0  0  0  0  0
    6.0710    2.6966   -0.8474 H   0  0  0  0  0  0  0  0  0  0  0  0
    3.7567    2.7076   -0.8986 H   0  0  0  0  0  0  0  0  0  0  0  0
    1.5479    1.7369   -0.6253 H   0  0  0  0  0  0  0  0  0  0  0  0
   -0.7446    1.8445   -0.7077 H   0  0  0  0  0  0  0  0  0  0  0  0
   -3.6916    2.1301   -0.8623 H   0  0  0  0  0  0  0  0  0  0  0  0
   -6.7077    1.6293   -0.7599 H   0  0  0  0  0  0  0  0  0  0  0  0
   -7.9775   -0.7099   -0.0174 H   0  0  0  0  0  0  0  0  0  0  0  0
   -3.6079   -2.5979    0.6930 H   0  0  0  0  0  0  0  0  0  0  0  0
   -0.8332   -2.1472    0.6021 H   0  0  0  0  0  0  0  0  0  0  0  0
    1.2908   -2.3673    0.7184 H   0  0  0  0  0  0  0  0  0  0  0  0
    3.7283   -2.4877    0.8083 H   0  0  0  0  0  0  0  0  0  0  0  0
  1  2  2  0
  2  3  1  0
  3  4  2  0
  4  5  1  0
  5  6  1  0
  6  7  2  0
  7  8  1  0
  8  9  1  0
  9 10  2  0
 10 11  1  0
 11 12  2  0
 12 13  1  0
 13 14  1  0
 14 15  2  0
 15 16  1  0
 16 17  1  0
 17 18  1  0
 18 19  2  0
 19 20  1  0
  8 21  2  0
 21 22  1  0
 22 23  2  0
 23  2  1  0
 23  6  1  0
 20  9  1  0
 19 11  1  0
 17 13  2  0
  3 24  1  0
  4 25  1  0
  5 26  1  0
  7 27  1  0
 10 28  1  0
 12 29  1  0
 14 30  1  0
 15 31  1  0
 18 32  1  0
 20 33  1  0
 21 34  1  0
 22 35  1  0
M  END
