
     RDKit          3D

 32 35  0  0  0  0  0  0  0  0999 V2000
    5.3584    1.6867    0.3696 O   0  0  0  0  0  0  0  0  0  0  0  0
    4.7782    0.6159    0.2308 C   0  0  0  0  0  0  0  0  0  0  0  0
    5.5481   -0.6400    0.0526 C   0  0  0  0  0  0  0  0  0  0  0  0
    4.8705   -1.7808   -0.1139 C   0  0  0  0  0  0  0  0  0  0  0  0
    3.5058   -1.8733   -0.1464 N   0  0  0  0  0  0  0  0  0  0  0  0
    2.7016   -0.7439    0.0693 C   0  0  0  0  0  0  0  0  0  0  0  0
    1.3060   -0.8384    0.0584 C   0  0  0  0  0  0  0  0  0  0  0  0
    0.5033    0.3013    0.2343 C   0  0  0  0  0  0  0  0  0  0  0  0
   -0.9551    0.1791    0.2232 C   0  0  0  0  0  0  0  0  0  0  0  0
   -1.7798   -0.8269    0.6982 C   0  0  0  0  0  0  0  0  0  0  0  0
   -3.1304   -0.4720    0.4309 C   0  0  0  0  0  0  0  0  0  0  0  0
   -4.3735   -1.0837    0.6812 C   0  0  0  0  0  0  0  0  0  0  0  0
   -5.5470   -0.4417    0.2685 C   0  0  0  0  0  0  0  0  0  0  0  0
   -5.4924    0.7886   -0.3835 C   0  0  0  0  0  0  0  0  0  0  0  0
   -4.2688    1.4141   -0.6419 C   0  0  0  0  0  0  0  0  0  0  0  0
   -3.1063    0.7583   -0.2203 C   0  0  0  0  0  0  0  0  0  0  0  0
   -1.7859    1.1265   -0.3356 N   0  0  0  0  0  0  0  0  0  0  0  0
    1.1206    1.5477    0.4212 C   0  0  0  0  0  0  0  0  0  0  0  0
    2.5128    1.6598    0.4213 C   0  0  0  0  0  0  0  0  0  0  0  0
    3.2953    0.5179    0.2395 C   0  0  0  0  0  0  0  0  0  0  0  0
    6.6270   -0.5786    0.0703 H   0  0  0  0  0  0  0  0  0  0  0  0
    5.3870   -2.7282   -0.2395 H   0  0  0  0  0  0  0  0  0  0  0  0
    3.0767   -2.7912   -0.1403 H   0  0  0  0  0  0  0  0  0  0  0  0
    0.8370   -1.8059   -0.1020 H   0  0  0  0  0  0  0  0  0  0  0  0
   -1.4492   -1.7266    1.2003 H   0  0  0  0  0  0  0  0  0  0  0  0
   -4.4242   -2.0424    1.1882 H   0  0  0  0  0  0  0  0  0  0  0  0
   -6.5096   -0.9097    0.4594 H   0  0  0  0  0  0  0  0  0  0  0  0
   -6.4156    1.2710   -0.6966 H   0  0  0  0  0  0  0  0  0  0  0  0
   -4.2300    2.3722   -1.1495 H   0  0  0  0  0  0  0  0  0  0  0  0
   -1.4713    1.9709   -0.7906 H   0  0  0  0  0  0  0  0  0  0  0  0
    0.5275    2.4440    0.5871 H   0  0  0  0  0  0  0  0  0  0  0  0
    2.9834    2.6294    0.5665 H   0  0  0  0  0  0  0  0  0  0  0  0
  1  2  2  0
  2  3  1  0
  3  4  2  0
  4  5  1  0
  5  6  1  0
  6  7  2  0
  7  8  1  0
  8  9  1  0
  9 10  2  0
 10 11  1  0
 11 12  2  0
 12 13  1  0
 13 14  2  0
 14 15  1  0
 15 16  2  0
 16 17  1  0
  8 18  2  0
 18 19  1  0
 19 20  2  0
 20  2  1  0
 20  6  1  0
 17  9  1  0
 16 11  1  0
  3 21  1  0
  4 22  1  0
  5 23  1  0
  7 24  1  0
 10 25  1  0
 12 26  1  0
 13 27  1  0
 14 28  1  0
 15 29  1  0
 17 30  1  0
 18 31  1  0
 19 32  1  0
M  END
