
     RDKit          3D

 31 34  0  0  0  0  0  0  0  0999 V2000
    5.0855    2.4572    0.1132 O   0  0  0  0  0  0  0  0  0  0  0  0
    4.6796    1.3010    0.0862 C   0  0  0  0  0  0  0  0  0  0  0  0
    5.6367    0.1672    0.0582 C   0  0  0  0  0  0  0  0  0  0  0  0
    5.1448   -1.0761    0.0292 C   0  0  0  0  0  0  0  0  0  0  0  0
    3.8113   -1.3796    0.0236 N   0  0  0  0  0  0  0  0  0  0  0  0
    2.8384   -0.3696    0.0487 C   0  0  0  0  0  0  0  0  0  0  0  0
    1.4717   -0.6813    0.0429 C   0  0  0  0  0  0  0  0  0  0  0  0
    0.4813    0.3229    0.0680 C   0  0  0  0  0  0  0  0  0  0  0  0
   -0.9725    0.0123    0.0623 C   0  0  0  0  0  0  0  0  0  0  0  0
   -2.0506    0.8831    0.0842 C   0  0  0  0  0  0  0  0  0  0  0  0
   -3.3341    0.2393    0.0705 C   0  0  0  0  0  0  0  0  0  0  0  0
   -4.6399    0.7862    0.0850 C   0  0  0  0  0  0  0  0  0  0  0  0
   -5.7581   -0.0529    0.0664 C   0  0  0  0  0  0  0  0  0  0  0  0
   -5.5981   -1.4310    0.0335 C   0  0  0  0  0  0  0  0  0  0  0  0
   -4.3212   -1.9969    0.0185 C   0  0  0  0  0  0  0  0  0  0  0  0
   -3.1987   -1.1461    0.0374 C   0  0  0  0  0  0  0  0  0  0  0  0
   -1.5468   -1.6076    0.0245 S   0  0  0  0  0  0  0  0  0  0  0  0
    0.9165    1.6623    0.0993 C   0  0  0  0  0  0  0  0  0  0  0  0
    2.2762    1.9916    0.1055 C   0  0  0  0  0  0  0  0  0  0  0  0
    3.2296    0.9764    0.0802 C   0  0  0  0  0  0  0  0  0  0  0  0
    6.6929    0.3963    0.0624 H   0  0  0  0  0  0  0  0  0  0  0  0
    5.8022   -1.9407    0.0079 H   0  0  0  0  0  0  0  0  0  0  0  0
    3.5241   -2.3507    0.0008 H   0  0  0  0  0  0  0  0  0  0  0  0
    1.1924   -1.7308    0.0183 H   0  0  0  0  0  0  0  0  0  0  0  0
   -1.9501    1.9603    0.1097 H   0  0  0  0  0  0  0  0  0  0  0  0
   -4.7772    1.8643    0.1108 H   0  0  0  0  0  0  0  0  0  0  0  0
   -6.7562    0.3785    0.0778 H   0  0  0  0  0  0  0  0  0  0  0  0
   -6.4723   -2.0779    0.0192 H   0  0  0  0  0  0  0  0  0  0  0  0
   -4.1980   -3.0758   -0.0072 H   0  0  0  0  0  0  0  0  0  0  0  0
    0.2053    2.4840    0.1196 H   0  0  0  0  0  0  0  0  0  0  0  0
    2.5853    3.0342    0.1299 H   0  0  0  0  0  0  0  0  0  0  0  0
  1  2  2  0
  2  3  1  0
  3  4  2  0
  4  5  1  0
  5  6  1  0
  6  7  2  0
  7  8  1  0
  8  9  1  0
  9 10  2  0
 10 11  1  0
 11 12  2  0
 12 13  1  0
 13 14  2  0
 14 15  1  0
 15 16  2  0
 16 17  1  0
  8 18  2  0
 18 19  1  0
 19 20  2  0
 20  2  1  0
 20  6  1  0
 17  9  1  0
 16 11  1  0
  3 21  1  0
  4 22  1  0
  5 23  1  0
  7 24  1  0
 10 25  1  0
 12 26  1  0
 13 27  1  0
 14 28  1  0
 15 29  1  0
 18 30  1  0
 19 31  1  0
M  END
