
     RDKit          3D

 30 33  0  0  0  0  0  0  0  0999 V2000
   -4.7666   -1.9449   -0.4122 O   0  0  0  0  0  0  0  0  0  0  0  0
   -4.2346   -0.8416   -0.3692 C   0  0  0  0  0  0  0  0  0  0  0  0
   -5.0489    0.3916   -0.5023 C   0  0  0  0  0  0  0  0  0  0  0  0
   -4.4273    1.5731   -0.4274 C   0  0  0  0  0  0  0  0  0  0  0  0
   -3.0842    1.7311   -0.2155 N   0  0  0  0  0  0  0  0  0  0  0  0
   -2.2326    0.6173   -0.1466 C   0  0  0  0  0  0  0  0  0  0  0  0
   -0.8552    0.7741    0.0434 C   0  0  0  0  0  0  0  0  0  0  0  0
   -0.0020   -0.3410    0.1538 C   0  0  0  0  0  0  0  0  0  0  0  0
    1.4472   -0.1647    0.3452 C   0  0  0  0  0  0  0  0  0  0  0  0
    1.9420    0.5765    1.4372 C   0  0  0  0  0  0  0  0  0  0  0  0
    3.3141    0.7680    1.6579 C   0  0  0  0  0  0  0  0  0  0  0  0
    4.1736    0.1820    0.7312 C   0  0  0  0  0  0  0  0  0  0  0  0
    5.5335    0.1411    0.6051 N   0  0  0  0  0  0  0  0  0  0  0  0
    5.9167   -0.5588   -0.4750 N   0  0  0  0  0  0  0  0  0  0  0  0
    4.8165   -0.9938   -1.0773 N   0  0  0  0  0  0  0  0  0  0  0  0
    3.7363   -0.5556   -0.3588 C   0  0  0  0  0  0  0  0  0  0  0  0
    2.3612   -0.7376   -0.5623 C   0  0  0  0  0  0  0  0  0  0  0  0
   -0.5662   -1.6270    0.0810 C   0  0  0  0  0  0  0  0  0  0  0  0
   -1.9416   -1.8004   -0.0879 C   0  0  0  0  0  0  0  0  0  0  0  0
   -2.7678   -0.6805   -0.1940 C   0  0  0  0  0  0  0  0  0  0  0  0
   -6.1120    0.2804   -0.6625 H   0  0  0  0  0  0  0  0  0  0  0  0
   -4.9768    2.5045   -0.5315 H   0  0  0  0  0  0  0  0  0  0  0  0
   -2.6771    2.6491   -0.3519 H   0  0  0  0  0  0  0  0  0  0  0  0
   -0.4340    1.7755    0.0965 H   0  0  0  0  0  0  0  0  0  0  0  0
    1.2416    1.0106    2.1512 H   0  0  0  0  0  0  0  0  0  0  0  0
    3.6755    1.3374    2.5072 H   0  0  0  0  0  0  0  0  0  0  0  0
    6.2446    0.5531    1.1960 H   0  0  0  0  0  0  0  0  0  0  0  0
    2.0226   -1.3090   -1.4208 H   0  0  0  0  0  0  0  0  0  0  0  0
    0.0660   -2.5091    0.1717 H   0  0  0  0  0  0  0  0  0  0  0  0
   -2.3646   -2.8014   -0.1320 H   0  0  0  0  0  0  0  0  0  0  0  0
  1  2  2  0
  2  3  1  0
  3  4  2  0
  4  5  1  0
  5  6  1  0
  6  7  2  0
  7  8  1  0
  8  9  1  0
  9 10  2  0
 10 11  1  0
 11 12  2  0
 12 13  1  0
 13 14  1  0
 14 15  2  0
 15 16  1  0
 16 17  2  0
  8 18  2  0
 18 19  1  0
 19 20  2  0
 20  2  1  0
 20  6  1  0
 17  9  1  0
 16 12  1  0
  3 21  1  0
  4 22  1  0
  5 23  1  0
  7 24  1  0
 10 25  1  0
 11 26  1  0
 13 27  1  0
 17 28  1  0
 18 29  1  0
 19 30  1  0
M  END
