
     RDKit          3D

 40 44  0  0  0  0  0  0  0  0999 V2000
    6.8027   -1.5697   -1.0737 O   0  0  0  0  0  0  0  0  0  0  0  0
    6.1574   -0.5857   -0.7313 C   0  0  0  0  0  0  0  0  0  0  0  0
    6.8265    0.7254   -0.5451 C   0  0  0  0  0  0  0  0  0  0  0  0
    6.0772    1.7753   -0.1923 C   0  0  0  0  0  0  0  0  0  0  0  0
    4.7215    1.7341   -0.0077 N   0  0  0  0  0  0  0  0  0  0  0  0
    4.0221    0.5202   -0.0958 C   0  0  0  0  0  0  0  0  0  0  0  0
    2.6405    0.4674    0.1187 C   0  0  0  0  0  0  0  0  0  0  0  0
    1.9280   -0.7406   -0.0094 C   0  0  0  0  0  0  0  0  0  0  0  0
    0.4767   -0.7860    0.2264 C   0  0  0  0  0  0  0  0  0  0  0  0
   -0.0663   -1.6355    1.2049 C   0  0  0  0  0  0  0  0  0  0  0  0
   -1.4419   -1.6684    1.4426 C   0  0  0  0  0  0  0  0  0  0  0  0
   -2.2926   -0.8542    0.6918 C   0  0  0  0  0  0  0  0  0  0  0  0
   -3.7567   -0.8725    0.9374 C   0  0  0  0  0  0  0  0  0  0  0  0
   -4.2346   -1.5892    1.8110 O   0  0  0  0  0  0  0  0  0  0  0  0
   -4.6296   -0.0115    0.1006 C   0  0  0  0  0  0  0  0  0  0  0  0
   -6.0157   -0.0183    0.2887 C   0  0  0  0  0  0  0  0  0  0  0  0
   -6.8224    0.7993   -0.5013 C   0  0  0  0  0  0  0  0  0  0  0  0
   -6.2445    1.6228   -1.4681 C   0  0  0  0  0  0  0  0  0  0  0  0
   -4.8585    1.6280   -1.6536 C   0  0  0  0  0  0  0  0  0  0  0  0
   -4.0390    0.7959   -0.8847 C   0  0  0  0  0  0  0  0  0  0  0  0
   -2.6419    0.8365   -1.0248 N   0  0  0  0  0  0  0  0  0  0  0  0
   -1.7841   -0.0165   -0.3108 C   0  0  0  0  0  0  0  0  0  0  0  0
   -0.4001    0.0250   -0.5192 C   0  0  0  0  0  0  0  0  0  0  0  0
    2.6337   -1.9013   -0.3720 C   0  0  0  0  0  0  0  0  0  0  0  0
    4.0091   -1.8610   -0.6101 C   0  0  0  0  0  0  0  0  0  0  0  0
    4.6946   -0.6523   -0.4780 C   0  0  0  0  0  0  0  0  0  0  0  0
    7.8959    0.7731   -0.6953 H   0  0  0  0  0  0  0  0  0  0  0  0
    6.5216    2.7535   -0.0308 H   0  0  0  0  0  0  0  0  0  0  0  0
    4.2695    2.5262    0.4346 H   0  0  0  0  0  0  0  0  0  0  0  0
    2.1085    1.3736    0.4001 H   0  0  0  0  0  0  0  0  0  0  0  0
    0.5853   -2.2688    1.8049 H   0  0  0  0  0  0  0  0  0  0  0  0
   -1.8460   -2.3217    2.2129 H   0  0  0  0  0  0  0  0  0  0  0  0
   -6.4626   -0.6548    1.0491 H   0  0  0  0  0  0  0  0  0  0  0  0
   -7.9003    0.7991   -0.3579 H   0  0  0  0  0  0  0  0  0  0  0  0
   -6.8749    2.2683   -2.0754 H   0  0  0  0  0  0  0  0  0  0  0  0
   -4.4281    2.2892   -2.4008 H   0  0  0  0  0  0  0  0  0  0  0  0
   -2.2859    1.2184   -1.8922 H   0  0  0  0  0  0  0  0  0  0  0  0
    0.0061    0.6899   -1.2786 H   0  0  0  0  0  0  0  0  0  0  0  0
    2.1087   -2.8484   -0.4870 H   0  0  0  0  0  0  0  0  0  0  0  0
    4.5401   -2.7648   -0.9003 H   0  0  0  0  0  0  0  0  0  0  0  0
  1  2  2  0
  2  3  1  0
  3  4  2  0
  4  5  1  0
  5  6  1  0
  6  7  2  0
  7  8  1  0
  8  9  1  0
  9 10  2  0
 10 11  1  0
 11 12  2  0
 12 13  1  0
 13 14  2  0
 13 15  1  0
 15 16  2  0
 16 17  1  0
 17 18  2  0
 18 19  1  0
 19 20  2  0
 20 21  1  0
 21 22  1  0
 22 23  2  0
  8 24  2  0
 24 25  1  0
 25 26  2  0
 26  2  1  0
 26  6  1  0
 23  9  1  0
 22 12  1  0
 20 15  1  0
  3 27  1  0
  4 28  1  0
  5 29  1  0
  7 30  1  0
 10 31  1  0
 11 32  1  0
 16 33  1  0
 17 34  1  0
 18 35  1  0
 19 36  1  0
 21 37  1  0
 23 38  1  0
 24 39  1  0
 25 40  1  0
M  END
