
     RDKit          3D

 44 48  0  0  0  0  0  0  0  0999 V2000
   -7.1120   -1.7345   -0.0516 O   0  0  0  0  0  0  0  0  0  0  0  0
   -6.6032   -0.6808    0.3135 C   0  0  0  0  0  0  0  0  0  0  0  0
   -7.4340    0.3788    0.9370 C   0  0  0  0  0  0  0  0  0  0  0  0
   -6.8379    1.5180    1.3047 C   0  0  0  0  0  0  0  0  0  0  0  0
   -5.5078    1.7880    1.1302 N   0  0  0  0  0  0  0  0  0  0  0  0
   -4.6402    0.8185    0.6038 C   0  0  0  0  0  0  0  0  0  0  0  0
   -3.2753    1.0820    0.4458 C   0  0  0  0  0  0  0  0  0  0  0  0
   -2.4071    0.1258   -0.1157 C   0  0  0  0  0  0  0  0  0  0  0  0
   -0.9718    0.4099   -0.2682 C   0  0  0  0  0  0  0  0  0  0  0  0
   -0.5261    1.5280   -0.9746 C   0  0  0  0  0  0  0  0  0  0  0  0
    0.8415    1.7888   -1.1065 C   0  0  0  0  0  0  0  0  0  0  0  0
    1.8199    0.9490   -0.5404 C   0  0  0  0  0  0  0  0  0  0  0  0
    1.3844   -0.1860    0.1539 C   0  0  0  0  0  0  0  0  0  0  0  0
   -0.0011   -0.4337    0.2910 C   0  0  0  0  0  0  0  0  0  0  0  0
    2.3395   -1.1457    0.8141 C   0  0  0  0  0  0  0  0  0  0  0  0
    3.4186   -1.6406   -0.1394 C   0  0  0  0  0  0  0  0  0  0  0  0
    4.5764   -0.6834   -0.2449 C   0  0  0  0  0  0  0  0  0  0  0  0
    5.8784   -1.2025   -0.0812 C   0  0  0  0  0  0  0  0  0  0  0  0
    7.0014   -0.3848   -0.1794 C   0  0  0  0  0  0  0  0  0  0  0  0
    6.8409    0.9654   -0.4485 C   0  0  0  0  0  0  0  0  0  0  0  0
    5.5577    1.4856   -0.6255 C   0  0  0  0  0  0  0  0  0  0  0  0
    4.4051    0.6764   -0.5407 C   0  0  0  0  0  0  0  0  0  0  0  0
    3.1643    1.3106   -0.7344 N   0  0  0  0  0  0  0  0  0  0  0  0
   -2.9448   -1.1058   -0.5304 C   0  0  0  0  0  0  0  0  0  0  0  0
   -4.3081   -1.3775   -0.3964 C   0  0  0  0  0  0  0  0  0  0  0  0
   -5.1489   -0.4146    0.1637 C   0  0  0  0  0  0  0  0  0  0  0  0
   -8.4875    0.1800    1.0740 H   0  0  0  0  0  0  0  0  0  0  0  0
   -7.3998    2.3196    1.7757 H   0  0  0  0  0  0  0  0  0  0  0  0
   -5.1130    2.6051    1.5811 H   0  0  0  0  0  0  0  0  0  0  0  0
   -2.8739    2.0389    0.7722 H   0  0  0  0  0  0  0  0  0  0  0  0
   -1.2385    2.2043   -1.4419 H   0  0  0  0  0  0  0  0  0  0  0  0
    1.1400    2.6691   -1.6717 H   0  0  0  0  0  0  0  0  0  0  0  0
   -0.3291   -1.3047    0.8580 H   0  0  0  0  0  0  0  0  0  0  0  0
    1.7813   -2.0245    1.1624 H   0  0  0  0  0  0  0  0  0  0  0  0
    2.7660   -0.6765    1.7098 H   0  0  0  0  0  0  0  0  0  0  0  0
    3.0202   -1.8420   -1.1419 H   0  0  0  0  0  0  0  0  0  0  0  0
    3.7827   -2.6015    0.2469 H   0  0  0  0  0  0  0  0  0  0  0  0
    6.0231   -2.2606    0.1285 H   0  0  0  0  0  0  0  0  0  0  0  0
    7.9950   -0.8031   -0.0448 H   0  0  0  0  0  0  0  0  0  0  0  0
    7.7078    1.6158   -0.5229 H   0  0  0  0  0  0  0  0  0  0  0  0
    5.4624    2.5491   -0.8327 H   0  0  0  0  0  0  0  0  0  0  0  0
    3.2650    2.2416   -1.1226 H   0  0  0  0  0  0  0  0  0  0  0  0
   -2.3006   -1.8603   -0.9791 H   0  0  0  0  0  0  0  0  0  0  0  0
   -4.7105   -2.3309   -0.7309 H   0  0  0  0  0  0  0  0  0  0  0  0
  1  2  2  0
  2  3  1  0
  3  4  2  0
  4  5  1  0
  5  6  1  0
  6  7  2  0
  7  8  1  0
  8  9  1  0
  9 10  2  0
 10 11  1  0
 11 12  2  0
 12 13  1  0
 13 14  2  0
 13 15  1  0
 15 16  1  0
 16 17  1  0
 17 18  2  0
 18 19  1  0
 19 20  2  0
 20 21  1  0
 21 22  2  0
 22 23  1  0
  8 24  2  0
 24 25  1  0
 25 26  2  0
 26  2  1  0
 26  6  1  0
 14  9  1  0
 22 17  1  0
 23 12  1  0
  3 27  1  0
  4 28  1  0
  5 29  1  0
  7 30  1  0
 10 31  1  0
 11 32  1  0
 14 33  1  0
 15 34  1  0
 15 35  1  0
 16 36  1  0
 16 37  1  0
 18 38  1  0
 19 39  1  0
 20 40  1  0
 21 41  1  0
 23 42  1  0
 24 43  1  0
 25 44  1  0
M  END
