
     RDKit          3D

 39 43  0  0  0  0  0  0  0  0999 V2000
   -6.0048   -2.4836    1.8051 O   0  0  0  0  0  0  0  0  0  0  0  0
   -5.6709   -1.9741    0.7415 C   0  0  0  0  0  0  0  0  0  0  0  0
   -6.5847   -2.0054   -0.4274 C   0  0  0  0  0  0  0  0  0  0  0  0
   -6.1714   -1.4477   -1.5704 C   0  0  0  0  0  0  0  0  0  0  0  0
   -4.9518   -0.8532   -1.7446 N   0  0  0  0  0  0  0  0  0  0  0  0
   -4.0430   -0.7452   -0.6819 C   0  0  0  0  0  0  0  0  0  0  0  0
   -2.8009   -0.1248   -0.8537 C   0  0  0  0  0  0  0  0  0  0  0  0
   -1.8749   -0.0401    0.2041 C   0  0  0  0  0  0  0  0  0  0  0  0
   -0.5723    0.6163    0.0123 C   0  0  0  0  0  0  0  0  0  0  0  0
   -0.4906    1.9430   -0.4277 C   0  0  0  0  0  0  0  0  0  0  0  0
    0.7497    2.5569   -0.6197 C   0  0  0  0  0  0  0  0  0  0  0  0
    1.9395    1.8601   -0.3716 C   0  0  0  0  0  0  0  0  0  0  0  0
    1.8844    0.5361    0.0898 C   0  0  0  0  0  0  0  0  0  0  0  0
    0.6277   -0.0726    0.2597 C   0  0  0  0  0  0  0  0  0  0  0  0
    3.0430   -0.2297    0.3121 N   0  0  0  0  0  0  0  0  0  0  0  0
    4.3731    0.2214    0.2405 C   0  0  0  0  0  0  0  0  0  0  0  0
    5.4095   -0.6750    0.5491 C   0  0  0  0  0  0  0  0  0  0  0  0
    6.7477   -0.2886    0.4541 C   0  0  0  0  0  0  0  0  0  0  0  0
    7.0693    0.9976    0.0347 C   0  0  0  0  0  0  0  0  0  0  0  0
    6.0522    1.8932   -0.2953 C   0  0  0  0  0  0  0  0  0  0  0  0
    4.7044    1.5129   -0.2030 C   0  0  0  0  0  0  0  0  0  0  0  0
    3.4743    2.7235   -0.6590 S   0  0  0  0  0  0  0  0  0  0  0  0
   -2.2220   -0.6008    1.4461 C   0  0  0  0  0  0  0  0  0  0  0  0
   -3.4543   -1.2311    1.6314 C   0  0  0  0  0  0  0  0  0  0  0  0
   -4.3558   -1.3039    0.5683 C   0  0  0  0  0  0  0  0  0  0  0  0
   -7.5494   -2.4765   -0.3025 H   0  0  0  0  0  0  0  0  0  0  0  0
   -6.8048   -1.4392   -2.4530 H   0  0  0  0  0  0  0  0  0  0  0  0
   -4.7575   -0.3735   -2.6154 H   0  0  0  0  0  0  0  0  0  0  0  0
   -2.5395    0.2889   -1.8253 H   0  0  0  0  0  0  0  0  0  0  0  0
   -1.3957    2.5159   -0.6198 H   0  0  0  0  0  0  0  0  0  0  0  0
    0.7792    3.5877   -0.9665 H   0  0  0  0  0  0  0  0  0  0  0  0
    0.5815   -1.1118    0.5800 H   0  0  0  0  0  0  0  0  0  0  0  0
    2.9053   -1.0893    0.8272 H   0  0  0  0  0  0  0  0  0  0  0  0
    5.1801   -1.6890    0.8662 H   0  0  0  0  0  0  0  0  0  0  0  0
    7.5366   -0.9939    0.7026 H   0  0  0  0  0  0  0  0  0  0  0  0
    8.1094    1.3036   -0.0428 H   0  0  0  0  0  0  0  0  0  0  0  0
    6.3183    2.8933   -0.6303 H   0  0  0  0  0  0  0  0  0  0  0  0
   -1.5319   -0.5410    2.2862 H   0  0  0  0  0  0  0  0  0  0  0  0
   -3.7089   -1.6604    2.5977 H   0  0  0  0  0  0  0  0  0  0  0  0
  1  2  2  0
  2  3  1  0
  3  4  2  0
  4  5  1  0
  5  6  1  0
  6  7  2  0
  7  8  1  0
  8  9  1  0
  9 10  2  0
 10 11  1  0
 11 12  2  0
 12 13  1  0
 13 14  2  0
 13 15  1  0
 15 16  1  0
 16 17  2  0
 17 18  1  0
 18 19  2  0
 19 20  1  0
 20 21  2  0
 21 22  1  0
  8 23  2  0
 23 24  1  0
 24 25  2  0
 25  2  1  0
 25  6  1  0
 14  9  1  0
 21 16  1  0
 22 12  1  0
  3 26  1  0
  4 27  1  0
  5 28  1  0
  7 29  1  0
 10 30  1  0
 11 31  1  0
 14 32  1  0
 15 33  1  0
 17 34  1  0
 18 35  1  0
 19 36  1  0
 20 37  1  0
 23 38  1  0
 24 39  1  0
M  END
