
     RDKit          3D

 30 34  0  0  0  0  0  0  0  0999 V2000
    4.5052    1.0492    1.9910 Si  0  0  0  0  0  4  0  0  0  0  0  0
    5.5676    2.1013    0.7946 C   0  0  0  0  0  0  0  0  0  0  0  0
    4.9257    2.3525   -0.3672 C   0  0  0  0  0  0  0  0  0  0  0  0
    3.6248    1.7667   -0.3949 C   0  0  0  0  0  0  0  0  0  0  0  0
    2.5000    1.8497   -1.6724 S   0  0  0  0  0  0  0  0  0  0  0  0
    1.3790    0.8954   -0.7412 C   0  0  0  0  0  0  0  0  0  0  0  0
    0.0979    0.3431   -0.8217 C   0  0  0  0  0  0  0  0  0  0  0  0
   -1.3881    0.1642   -1.9017 Si  0  0  0  0  0  4  0  0  0  0  0  0
   -2.1963   -0.8846   -0.4426 C   0  0  0  0  0  0  0  0  0  0  0  0
   -1.3547   -0.9997    0.6156 C   0  0  0  0  0  0  0  0  0  0  0  0
   -0.1404   -0.3203    0.3572 C   0  0  0  0  0  0  0  0  0  0  0  0
    0.9351   -0.2124    1.1790 N   0  0  0  0  0  0  0  0  0  0  0  0
    1.8793    0.5417    0.5008 C   0  0  0  0  0  0  0  0  0  0  0  0
    3.1695    1.0462    0.6912 C   0  0  0  0  0  0  0  0  0  0  0  0
   -3.5008   -1.4321   -0.5536 C   0  0  0  0  0  0  0  0  0  0  0  0
   -4.6390   -0.8916   -1.1343 C   0  0  0  0  0  0  0  0  0  0  0  0
   -5.7742   -1.7512   -1.0645 C   0  0  0  0  0  0  0  0  0  0  0  0
   -5.4818   -2.9342   -0.4302 C   0  0  0  0  0  0  0  0  0  0  0  0
   -3.8548   -3.0023    0.0779 S   0  0  0  0  0  0  0  0  0  0  0  0
    5.1262   -0.2767    2.2329 H   0  0  0  0  0  0  0  0  0  0  0  0
    4.1638    1.8136    3.2163 H   0  0  0  0  0  0  0  0  0  0  0  0
    6.5569    2.4229    1.0784 H   0  0  0  0  0  0  0  0  0  0  0  0
    5.3356    2.9273   -1.1881 H   0  0  0  0  0  0  0  0  0  0  0  0
   -2.1685    1.4114   -2.1225 H   0  0  0  0  0  0  0  0  0  0  0  0
   -1.1957   -0.6834   -3.1077 H   0  0  0  0  0  0  0  0  0  0  0  0
   -1.5691   -1.5248    1.5374 H   0  0  0  0  0  0  0  0  0  0  0  0
    1.0665   -0.5903    2.1084 H   0  0  0  0  0  0  0  0  0  0  0  0
   -4.6691    0.0927   -1.5865 H   0  0  0  0  0  0  0  0  0  0  0  0
   -6.7540   -1.5099   -1.4575 H   0  0  0  0  0  0  0  0  0  0  0  0
   -6.1467   -3.7646   -0.2370 H   0  0  0  0  0  0  0  0  0  0  0  0
  1  2  1  0
  2  3  2  0
  3  4  1  0
  4  5  1  0
  5  6  1  0
  6  7  1  0
  7  8  1  0
  8  9  1  0
  9 10  2  0
 10 11  1  0
 11 12  1  0
 12 13  1  0
 13 14  1  0
  9 15  1  0
 15 16  2  0
 16 17  1  0
 17 18  2  0
 18 19  1  0
 14  1  1  0
 19 15  1  0
 14  4  2  0
 13  6  2  0
 11  7  2  0
  1 20  1  0
  1 21  1  0
  2 22  1  0
  3 23  1  0
  8 24  1  0
  8 25  1  0
 10 26  1  0
 12 27  1  0
 16 28  1  0
 17 29  1  0
 18 30  1  0
M  END
