
     RDKit          3D

 39 43  0  0  0  0  0  0  0  0999 V2000
    6.4678    1.1909    1.9309 O   0  0  0  0  0  0  0  0  0  0  0  0
    5.9896    0.6471    0.9420 C   0  0  0  0  0  0  0  0  0  0  0  0
    6.8730    0.1257   -0.1302 C   0  0  0  0  0  0  0  0  0  0  0  0
    6.3071   -0.4791   -1.1800 C   0  0  0  0  0  0  0  0  0  0  0  0
    4.9605   -0.6720   -1.3310 N   0  0  0  0  0  0  0  0  0  0  0  0
    4.0514   -0.1505   -0.3971 C   0  0  0  0  0  0  0  0  0  0  0  0
    2.6723   -0.3219   -0.5608 C   0  0  0  0  0  0  0  0  0  0  0  0
    1.7571    0.1640    0.3933 C   0  0  0  0  0  0  0  0  0  0  0  0
    0.3084   -0.0146    0.2073 C   0  0  0  0  0  0  0  0  0  0  0  0
   -0.2443   -1.2787   -0.0016 C   0  0  0  0  0  0  0  0  0  0  0  0
   -1.6226   -1.4320   -0.1742 C   0  0  0  0  0  0  0  0  0  0  0  0
   -2.5031   -0.3234   -0.1458 C   0  0  0  0  0  0  0  0  0  0  0  0
   -1.9405    0.9558    0.0655 C   0  0  0  0  0  0  0  0  0  0  0  0
   -0.5671    1.0818    0.2357 C   0  0  0  0  0  0  0  0  0  0  0  0
   -2.6709    2.0765    0.1113 N   0  0  0  0  0  0  0  0  0  0  0  0
   -4.0061    1.9693   -0.0516 C   0  0  0  0  0  0  0  0  0  0  0  0
   -4.6857    0.7765   -0.2653 C   0  0  0  0  0  0  0  0  0  0  0  0
   -6.0838    0.7528   -0.4256 C   0  0  0  0  0  0  0  0  0  0  0  0
   -6.7538   -0.4483   -0.6389 C   0  0  0  0  0  0  0  0  0  0  0  0
   -6.0332   -1.6330   -0.6937 C   0  0  0  0  0  0  0  0  0  0  0  0
   -4.6434   -1.6149   -0.5350 C   0  0  0  0  0  0  0  0  0  0  0  0
   -3.9263   -0.4109   -0.3161 C   0  0  0  0  0  0  0  0  0  0  0  0
    2.2611    0.8204    1.5304 C   0  0  0  0  0  0  0  0  0  0  0  0
    3.6356    0.9816    1.7189 C   0  0  0  0  0  0  0  0  0  0  0  0
    4.5230    0.4909    0.7600 C   0  0  0  0  0  0  0  0  0  0  0  0
    7.9390    0.2651   -0.0190 H   0  0  0  0  0  0  0  0  0  0  0  0
    6.9094   -0.8665   -1.9970 H   0  0  0  0  0  0  0  0  0  0  0  0
    4.6125   -0.9760   -2.2330 H   0  0  0  0  0  0  0  0  0  0  0  0
    2.2995   -0.8302   -1.4473 H   0  0  0  0  0  0  0  0  0  0  0  0
    0.3911   -2.1623   -0.0179 H   0  0  0  0  0  0  0  0  0  0  0  0
   -1.9975   -2.4398   -0.3280 H   0  0  0  0  0  0  0  0  0  0  0  0
   -0.1667    2.0836    0.3871 H   0  0  0  0  0  0  0  0  0  0  0  0
   -4.5357    2.9178   -0.0023 H   0  0  0  0  0  0  0  0  0  0  0  0
   -6.6595    1.6754   -0.3843 H   0  0  0  0  0  0  0  0  0  0  0  0
   -7.8336   -0.4580   -0.7614 H   0  0  0  0  0  0  0  0  0  0  0  0
   -6.5478   -2.5763   -0.8594 H   0  0  0  0  0  0  0  0  0  0  0  0
   -4.1268   -2.5695   -0.5858 H   0  0  0  0  0  0  0  0  0  0  0  0
    1.5802    1.2001    2.2909 H   0  0  0  0  0  0  0  0  0  0  0  0
    4.0097    1.4826    2.6087 H   0  0  0  0  0  0  0  0  0  0  0  0
  1  2  2  0
  2  3  1  0
  3  4  2  0
  4  5  1  0
  5  6  1  0
  6  7  2  0
  7  8  1  0
  8  9  1  0
  9 10  2  0
 10 11  1  0
 11 12  2  0
 12 13  1  0
 13 14  2  0
 13 15  1  0
 15 16  2  0
 16 17  1  0
 17 18  2  0
 18 19  1  0
 19 20  2  0
 20 21  1  0
 21 22  2  0
  8 23  2  0
 23 24  1  0
 24 25  2  0
 25  2  1  0
 25  6  1  0
 14  9  1  0
 22 17  1  0
 22 12  1  0
  3 26  1  0
  4 27  1  0
  5 28  1  0
  7 29  1  0
 10 30  1  0
 11 31  1  0
 14 32  1  0
 16 33  1  0
 18 34  1  0
 19 35  1  0
 20 36  1  0
 21 37  1  0
 23 38  1  0
 24 39  1  0
M  END
