
     RDKit          3D

 32 36  0  0  0  0  0  0  0  0999 V2000
   -5.9671    0.2183   -1.5882 O   0  0  0  0  0  0  0  0  0  0  0  0
   -5.2964    0.0729   -0.5727 C   0  0  0  0  0  0  0  0  0  0  0  0
   -5.9537   -0.1312    0.7421 C   0  0  0  0  0  0  0  0  0  0  0  0
   -5.1783   -0.2850    1.8209 C   0  0  0  0  0  0  0  0  0  0  0  0
   -3.8110   -0.2674    1.7984 N   0  0  0  0  0  0  0  0  0  0  0  0
   -3.1095   -0.0805    0.5996 C   0  0  0  0  0  0  0  0  0  0  0  0
   -1.7110   -0.0623    0.5745 C   0  0  0  0  0  0  0  0  0  0  0  0
   -0.9954    0.1253   -0.6267 C   0  0  0  0  0  0  0  0  0  0  0  0
    0.4835    0.1323   -0.5716 C   0  0  0  0  0  0  0  0  0  0  0  0
    1.1702   -0.0281    0.5446 N   0  0  0  0  0  0  0  0  0  0  0  0
    2.5295    0.0230    0.2973 C   0  0  0  0  0  0  0  0  0  0  0  0
    3.5490   -0.1091    1.2486 C   0  0  0  0  0  0  0  0  0  0  0  0
    4.8871   -0.0373    0.8616 C   0  0  0  0  0  0  0  0  0  0  0  0
    6.3167   -0.1651    1.8123 S   0  0  0  0  0  0  0  0  0  0  0  0
    7.2611    0.0563    0.4014 C   0  0  0  0  0  0  0  0  0  0  0  0
    6.6022    0.2182   -0.7233 N   0  0  0  0  0  0  0  0  0  0  0  0
    5.2417    0.1665   -0.4725 C   0  0  0  0  0  0  0  0  0  0  0  0
    4.2204    0.2984   -1.4219 C   0  0  0  0  0  0  0  0  0  0  0  0
    2.8830    0.2262   -1.0330 C   0  0  0  0  0  0  0  0  0  0  0  0
    1.4560    0.3531   -1.9770 S   0  0  0  0  0  0  0  0  0  0  0  0
   -1.7299    0.2958   -1.8142 C   0  0  0  0  0  0  0  0  0  0  0  0
   -3.1289    0.2801   -1.8057 C   0  0  0  0  0  0  0  0  0  0  0  0
   -3.8107    0.0927   -0.6030 C   0  0  0  0  0  0  0  0  0  0  0  0
   -7.0340   -0.1467    0.7708 H   0  0  0  0  0  0  0  0  0  0  0  0
   -5.6092   -0.4373    2.8065 H   0  0  0  0  0  0  0  0  0  0  0  0
   -3.2982   -0.3922    2.6633 H   0  0  0  0  0  0  0  0  0  0  0  0
   -1.1614   -0.1962    1.5051 H   0  0  0  0  0  0  0  0  0  0  0  0
    3.2821   -0.2680    2.2895 H   0  0  0  0  0  0  0  0  0  0  0  0
    8.3427    0.0614    0.4412 H   0  0  0  0  0  0  0  0  0  0  0  0
    4.4871    0.4573   -2.4630 H   0  0  0  0  0  0  0  0  0  0  0  0
   -1.2359    0.4445   -2.7716 H   0  0  0  0  0  0  0  0  0  0  0  0
   -3.6817    0.4135   -2.7333 H   0  0  0  0  0  0  0  0  0  0  0  0
  1  2  2  0
  2  3  1  0
  3  4  2  0
  4  5  1  0
  5  6  1  0
  6  7  2  0
  7  8  1  0
  8  9  1  0
  9 10  2  0
 10 11  1  0
 11 12  2  0
 12 13  1  0
 13 14  1  0
 14 15  1  0
 15 16  2  0
 16 17  1  0
 17 18  1  0
 18 19  2  0
 19 20  1  0
  8 21  2  0
 21 22  1  0
 22 23  2  0
 23  2  1  0
 23  6  1  0
 20  9  1  0
 19 11  1  0
 17 13  2  0
  3 24  1  0
  4 25  1  0
  5 26  1  0
  7 27  1  0
 12 28  1  0
 15 29  1  0
 18 30  1  0
 21 31  1  0
 22 32  1  0
M  END
