
     RDKit          3D

 39 41  0  0  0  0  0  0  0  0999 V2000
   -0.2637   -3.7374    0.5794 O   0  0  0  0  0  0  0  0  0  0  0  0
    0.5803   -2.8530    0.4483 C   0  0  0  0  0  0  0  0  0  0  0  0
    0.3769   -1.4866    0.2177 N   0  0  0  0  0  0  0  0  0  0  0  0
   -0.9189   -0.8734    0.0668 C   0  0  0  0  0  0  0  0  0  0  0  0
   -2.1144   -1.5929    0.0593 C   0  0  0  0  0  0  0  0  0  0  0  0
   -3.3611   -0.9530   -0.0919 C   0  0  0  0  0  0  0  0  0  0  0  0
   -3.4887    0.4364   -0.2324 C   0  0  0  0  0  0  0  0  0  0  0  0
   -4.7286    1.0641   -0.3964 N   0  0  0  0  0  0  0  0  0  0  0  0
   -4.8184    2.5083   -0.1886 C   0  0  0  0  0  0  0  0  0  0  0  0
   -5.9467    0.3093   -0.1070 C   0  0  0  0  0  0  0  0  0  0  0  0
   -2.2815    1.1473   -0.2433 C   0  0  0  0  0  0  0  0  0  0  0  0
   -1.0335    0.5148   -0.0941 C   0  0  0  0  0  0  0  0  0  0  0  0
    1.4275   -0.5852    0.1256 N   0  0  0  0  0  0  0  0  0  0  0  0
    2.6429   -1.0141    0.2460 C   0  0  0  0  0  0  0  0  0  0  0  0
    3.7615   -0.0347    0.1483 C   0  0  0  0  0  0  0  0  0  0  0  0
    3.6273    1.0497   -0.7310 C   0  0  0  0  0  0  0  0  0  0  0  0
    4.6494    1.9934   -0.8479 C   0  0  0  0  0  0  0  0  0  0  0  0
    5.8061    1.8630   -0.0804 C   0  0  0  0  0  0  0  0  0  0  0  0
    5.9320    0.7938    0.8055 C   0  0  0  0  0  0  0  0  0  0  0  0
    7.3548    0.6444    1.7625 Cl  0  0  0  0  0  0  0  0  0  0  0  0
    4.9166   -0.1549    0.9292 C   0  0  0  0  0  0  0  0  0  0  0  0
    3.0056   -2.4269    0.4492 C   0  0  0  0  0  0  0  0  0  0  0  0
    1.9939   -3.2872    0.5436 C   0  0  0  0  0  0  0  0  0  0  0  0
   -2.1382   -2.6725    0.1580 H   0  0  0  0  0  0  0  0  0  0  0  0
   -4.2345   -1.5984   -0.0967 H   0  0  0  0  0  0  0  0  0  0  0  0
   -4.2129    3.0531   -0.9208 H   0  0  0  0  0  0  0  0  0  0  0  0
   -5.8453    2.8663   -0.3242 H   0  0  0  0  0  0  0  0  0  0  0  0
   -4.5052    2.7812    0.8253 H   0  0  0  0  0  0  0  0  0  0  0  0
   -5.9691   -0.0175    0.9385 H   0  0  0  0  0  0  0  0  0  0  0  0
   -6.8411    0.9178   -0.2828 H   0  0  0  0  0  0  0  0  0  0  0  0
   -6.0422   -0.5592   -0.7675 H   0  0  0  0  0  0  0  0  0  0  0  0
   -2.2665    2.2248   -0.3730 H   0  0  0  0  0  0  0  0  0  0  0  0
   -0.1489    1.1465   -0.1061 H   0  0  0  0  0  0  0  0  0  0  0  0
    2.7264    1.1613   -1.3325 H   0  0  0  0  0  0  0  0  0  0  0  0
    4.5411    2.8298   -1.5346 H   0  0  0  0  0  0  0  0  0  0  0  0
    6.5999    2.6002   -0.1715 H   0  0  0  0  0  0  0  0  0  0  0  0
    5.0274   -0.9595    1.6498 H   0  0  0  0  0  0  0  0  0  0  0  0
    4.0358   -2.7504    0.4889 H   0  0  0  0  0  0  0  0  0  0  0  0
    2.1538   -4.3490    0.6846 H   0  0  0  0  0  0  0  0  0  0  0  0
  1  2  2  0
  2  3  1  0
  3  4  1  0
  4  5  2  0
  5  6  1  0
  6  7  2  0
  7  8  1  0
  8  9  1  0
  8 10  1  0
  7 11  1  0
 11 12  2  0
  3 13  1  0
 13 14  2  0
 14 15  1  0
 15 16  2  0
 16 17  1  0
 17 18  2  0
 18 19  1  0
 19 20  1  0
 19 21  2  0
 14 22  1  0
 22 23  2  0
 23  2  1  0
 12  4  1  0
 21 15  1  0
  5 24  1  0
  6 25  1  0
  9 26  1  0
  9 27  1  0
  9 28  1  0
 10 29  1  0
 10 30  1  0
 10 31  1  0
 11 32  1  0
 12 33  1  0
 16 34  1  0
 17 35  1  0
 18 36  1  0
 21 37  1  0
 22 38  1  0
 23 39  1  0
M  END
