
     RDKit          3D

 38 43  0  0  0  0  0  0  0  0999 V2000
    0.0545   -1.8348   -1.3193 Si  0  0  0  0  0  4  0  0  0  0  0  0
   -0.7075   -0.4700   -0.3262 C   0  0  0  0  0  0  0  0  0  0  0  0
    0.2938    0.3983    0.1505 C   0  0  0  0  0  0  0  0  0  0  0  0
    0.0187    1.4789    0.9024 N   0  0  0  0  0  0  0  0  0  0  0  0
   -1.2825    1.7181    1.1980 C   0  0  0  0  0  0  0  0  0  0  0  0
   -2.3710    0.9464    0.7950 C   0  0  0  0  0  0  0  0  0  0  0  0
   -3.7081    1.3325    1.1927 C   0  0  0  0  0  0  0  0  0  0  0  0
   -4.8888    0.6409    0.8530 C   0  0  0  0  0  0  0  0  0  0  0  0
   -4.5869   -0.4658    0.0809 C   0  0  0  0  0  0  0  0  0  0  0  0
   -5.5134   -1.3467   -0.4119 C   0  0  0  0  0  0  0  0  0  0  0  0
   -4.8171   -2.2970   -1.1204 N   0  0  0  0  0  0  0  0  0  0  0  0
   -3.4626   -2.0255   -1.0798 C   0  0  0  0  0  0  0  0  0  0  0  0
   -3.2825   -0.8834   -0.3345 C   0  0  0  0  0  0  0  0  0  0  0  0
   -2.0659   -0.2037   -0.0064 C   0  0  0  0  0  0  0  0  0  0  0  0
    1.6912    0.0574   -0.2232 C   0  0  0  0  0  0  0  0  0  0  0  0
    1.7534   -1.1215   -1.0190 C   0  0  0  0  0  0  0  0  0  0  0  0
    2.9579   -1.6321   -1.4864 C   0  0  0  0  0  0  0  0  0  0  0  0
    4.1345   -0.9657   -1.1629 C   0  0  0  0  0  0  0  0  0  0  0  0
    4.1243    0.2017   -0.3802 C   0  0  0  0  0  0  0  0  0  0  0  0
    5.3433    0.8347   -0.0834 C   0  0  0  0  0  0  0  0  0  0  0  0
    5.3863    1.9932    0.6879 C   0  0  0  0  0  0  0  0  0  0  0  0
    4.2066    2.5349    1.1735 C   0  0  0  0  0  0  0  0  0  0  0  0
    2.9855    1.9174    0.8874 C   0  0  0  0  0  0  0  0  0  0  0  0
    2.8987    0.7382    0.1067 C   0  0  0  0  0  0  0  0  0  0  0  0
   -0.1074   -3.1779   -0.7035 H   0  0  0  0  0  0  0  0  0  0  0  0
   -0.3216   -1.8033   -2.7570 H   0  0  0  0  0  0  0  0  0  0  0  0
   -1.4286    2.6072    1.8083 H   0  0  0  0  0  0  0  0  0  0  0  0
   -3.8250    2.2293    1.8051 H   0  0  0  0  0  0  0  0  0  0  0  0
   -5.8759    0.9510    1.1633 H   0  0  0  0  0  0  0  0  0  0  0  0
   -6.5909   -1.3936   -0.3310 H   0  0  0  0  0  0  0  0  0  0  0  0
   -5.2349   -3.0826   -1.6024 H   0  0  0  0  0  0  0  0  0  0  0  0
   -2.7887   -2.6911   -1.5954 H   0  0  0  0  0  0  0  0  0  0  0  0
    2.9981   -2.5327   -2.0936 H   0  0  0  0  0  0  0  0  0  0  0  0
    5.0766   -1.3685   -1.5309 H   0  0  0  0  0  0  0  0  0  0  0  0
    6.2804    0.4254   -0.4552 H   0  0  0  0  0  0  0  0  0  0  0  0
    6.3379    2.4689    0.9072 H   0  0  0  0  0  0  0  0  0  0  0  0
    4.2255    3.4386    1.7767 H   0  0  0  0  0  0  0  0  0  0  0  0
    2.0919    2.3829    1.2922 H   0  0  0  0  0  0  0  0  0  0  0  0
  1  2  1  0
  2  3  2  0
  3  4  1  0
  4  5  2  0
  5  6  1  0
  6  7  1  0
  7  8  2  0
  8  9  1  0
  9 10  2  0
 10 11  1  0
 11 12  1  0
 12 13  2  0
 13 14  1  0
  3 15  1  0
 15 16  2  0
 16 17  1  0
 17 18  2  0
 18 19  1  0
 19 20  2  0
 20 21  1  0
 21 22  2  0
 22 23  1  0
 23 24  2  0
 16  1  1  0
 24 19  1  0
  2 14  1  0
 24 15  1  0
 14  6  2  0
 13  9  1  0
  1 25  1  0
  1 26  1  0
  5 27  1  0
  7 28  1  0
  8 29  1  0
 10 30  1  0
 11 31  1  0
 12 32  1  0
 17 33  1  0
 18 34  1  0
 20 35  1  0
 21 36  1  0
 22 37  1  0
 23 38  1  0
M  END
