
     RDKit          3D

 33 34  0  0  0  0  0  0  0  0999 V2000
   -2.9354    2.2843    1.7513 O   0  0  0  0  0  0  0  0  0  0  0  0
   -2.2014    1.4336    1.2787 C   0  0  0  0  0  0  0  0  0  0  0  0
   -0.9899    1.5769    0.6119 N   0  0  0  0  0  0  0  0  0  0  0  0
   -0.5371    0.2918    0.2442 N   0  0  0  0  0  0  0  0  0  0  0  0
    0.0737    0.3948   -1.0043 C   0  0  0  0  0  0  0  0  0  0  0  0
    0.7646   -0.7424   -1.6931 C   0  0  0  0  0  0  0  0  0  0  0  0
    2.5698   -0.6627   -1.4718 S   0  0  0  0  0  0  0  0  0  0  0  0
    2.6757   -0.9523    0.3215 C   0  0  0  0  0  0  0  0  0  0  0  0
    4.1111   -1.1726    0.7235 C   0  0  0  0  0  0  0  0  0  0  0  0
    4.7741   -0.0271    0.9818 O   0  0  0  0  0  0  0  0  0  0  0  0
    4.6772   -2.2508    0.8141 O   0  0  0  0  0  0  0  0  0  0  0  0
   -0.0161    1.6523   -1.4847 C   0  0  0  0  0  0  0  0  0  0  0  0
    0.4695    2.2861   -2.7310 C   0  0  0  0  0  0  0  0  0  0  0  0
   -0.7827    2.4291   -0.4677 C   0  0  0  0  0  0  0  0  0  0  0  0
   -1.0709    3.6063   -0.5968 O   0  0  0  0  0  0  0  0  0  0  0  0
   -1.4500   -0.6365    0.7381 C   0  0  0  0  0  0  0  0  0  0  0  0
   -1.2920   -2.1085    0.5592 C   0  0  0  0  0  0  0  0  0  0  0  0
   -2.4438   -0.0329    1.4188 C   0  0  0  0  0  0  0  0  0  0  0  0
   -3.6341   -0.5430    2.1357 C   0  0  0  0  0  0  0  0  0  0  0  0
    0.5623   -0.7017   -2.7692 H   0  0  0  0  0  0  0  0  0  0  0  0
    0.4170   -1.7219   -1.3662 H   0  0  0  0  0  0  0  0  0  0  0  0
    2.2756   -0.1039    0.8846 H   0  0  0  0  0  0  0  0  0  0  0  0
    2.1090   -1.8459    0.5992 H   0  0  0  0  0  0  0  0  0  0  0  0
    5.6906   -0.3163    1.1749 H   0  0  0  0  0  0  0  0  0  0  0  0
    0.9863    1.5752   -3.3816 H   0  0  0  0  0  0  0  0  0  0  0  0
    1.1688    3.0957   -2.4995 H   0  0  0  0  0  0  0  0  0  0  0  0
   -0.3678    2.7056   -3.2976 H   0  0  0  0  0  0  0  0  0  0  0  0
   -1.9471   -2.6792    1.2238 H   0  0  0  0  0  0  0  0  0  0  0  0
   -1.5334   -2.3998   -0.4673 H   0  0  0  0  0  0  0  0  0  0  0  0
   -0.2679   -2.4176    0.7886 H   0  0  0  0  0  0  0  0  0  0  0  0
   -4.5472   -0.0976    1.7278 H   0  0  0  0  0  0  0  0  0  0  0  0
   -3.7346   -1.6284    2.0541 H   0  0  0  0  0  0  0  0  0  0  0  0
   -3.5740   -0.2908    3.1991 H   0  0  0  0  0  0  0  0  0  0  0  0
  1  2  2  0
  2  3  1  0
  3  4  1  0
  4  5  1  0
  5  6  1  0
  6  7  1  0
  7  8  1  0
  8  9  1  0
  9 10  1  0
  9 11  2  0
  5 12  2  0
 12 13  1  0
 12 14  1  0
 14 15  2  0
  4 16  1  0
 16 17  1  0
 16 18  2  0
 18 19  1  0
 18  2  1  0
 14  3  1  0
  6 20  1  0
  6 21  1  0
  8 22  1  0
  8 23  1  0
 10 24  1  0
 13 25  1  0
 13 26  1  0
 13 27  1  0
 17 28  1  0
 17 29  1  0
 17 30  1  0
 19 31  1  0
 19 32  1  0
 19 33  1  0
M  END
