
     RDKit          3D

 42 46  0  0  0  0  0  0  0  0999 V2000
    7.1096   -1.4529    0.8941 O   0  0  0  0  0  0  0  0  0  0  0  0
    6.3256   -0.8106    0.2258 C   0  0  0  0  0  0  0  0  0  0  0  0
    6.5968    0.0379   -0.8033 N   0  0  0  0  0  0  0  0  0  0  0  0
    5.4698    0.5927   -1.3275 C   0  0  0  0  0  0  0  0  0  0  0  0
    5.3814    1.3849   -2.2432 O   0  0  0  0  0  0  0  0  0  0  0  0
    4.3485    0.0484   -0.5630 C   0  0  0  0  0  0  0  0  0  0  0  0
    2.9905    0.2756   -0.6799 C   0  0  0  0  0  0  0  0  0  0  0  0
    2.1281   -0.3974    0.2064 C   0  0  0  0  0  0  0  0  0  0  0  0
    0.6712   -0.1971    0.1314 C   0  0  0  0  0  0  0  0  0  0  0  0
    0.1132    1.0867    0.1691 C   0  0  0  0  0  0  0  0  0  0  0  0
   -1.2781    1.2875    0.0998 C   0  0  0  0  0  0  0  0  0  0  0  0
   -2.1539    0.1922   -0.0373 C   0  0  0  0  0  0  0  0  0  0  0  0
   -1.5984   -1.1027   -0.0541 C   0  0  0  0  0  0  0  0  0  0  0  0
   -0.2046   -1.2839    0.0177 C   0  0  0  0  0  0  0  0  0  0  0  0
   -2.4743   -2.3210   -0.2095 C   0  0  0  0  0  0  0  0  0  0  0  0
   -3.9305   -2.0201    0.1102 C   0  0  0  0  0  0  0  0  0  0  0  0
   -4.3437   -0.7355   -0.5884 C   0  0  0  0  0  0  0  0  0  0  0  0
   -3.5427    0.3818   -0.0917 N   0  0  0  0  0  0  0  0  0  0  0  0
   -4.0142    1.7243   -0.4265 C   0  0  0  0  0  0  0  0  0  0  0  0
   -3.2906    2.7546    0.4244 C   0  0  0  0  0  0  0  0  0  0  0  0
   -1.8013    2.7023    0.1202 C   0  0  0  0  0  0  0  0  0  0  0  0
    2.6869   -1.2746    1.1775 C   0  0  0  0  0  0  0  0  0  0  0  0
    4.0679   -1.4892    1.2763 C   0  0  0  0  0  0  0  0  0  0  0  0
    4.8722   -0.8100    0.3872 C   0  0  0  0  0  0  0  0  0  0  0  0
    7.5263    0.2354   -1.1371 H   0  0  0  0  0  0  0  0  0  0  0  0
    2.6121    0.9479   -1.4449 H   0  0  0  0  0  0  0  0  0  0  0  0
    0.7645    1.9539    0.2659 H   0  0  0  0  0  0  0  0  0  0  0  0
    0.1966   -2.2950   -0.0289 H   0  0  0  0  0  0  0  0  0  0  0  0
   -2.1237   -3.1252    0.4481 H   0  0  0  0  0  0  0  0  0  0  0  0
   -2.3898   -2.6746   -1.2447 H   0  0  0  0  0  0  0  0  0  0  0  0
   -4.5645   -2.8540   -0.2103 H   0  0  0  0  0  0  0  0  0  0  0  0
   -4.0588   -1.9104    1.1950 H   0  0  0  0  0  0  0  0  0  0  0  0
   -4.2347   -0.8276   -1.6766 H   0  0  0  0  0  0  0  0  0  0  0  0
   -5.4042   -0.5485   -0.3822 H   0  0  0  0  0  0  0  0  0  0  0  0
   -5.0899    1.7969   -0.2276 H   0  0  0  0  0  0  0  0  0  0  0  0
   -3.8662    1.9239   -1.4955 H   0  0  0  0  0  0  0  0  0  0  0  0
   -3.4613    2.5433    1.4881 H   0  0  0  0  0  0  0  0  0  0  0  0
   -3.6786    3.7596    0.2254 H   0  0  0  0  0  0  0  0  0  0  0  0
   -1.2634    3.2939    0.8703 H   0  0  0  0  0  0  0  0  0  0  0  0
   -1.6098    3.1531   -0.8615 H   0  0  0  0  0  0  0  0  0  0  0  0
    2.0281   -1.7895    1.8774 H   0  0  0  0  0  0  0  0  0  0  0  0
    4.4881   -2.1571    2.0211 H   0  0  0  0  0  0  0  0  0  0  0  0
  1  2  2  0
  2  3  1  0
  3  4  1  0
  4  5  2  0
  4  6  1  0
  6  7  2  0
  7  8  1  0
  8  9  1  0
  9 10  2  0
 10 11  1  0
 11 12  2  0
 12 13  1  0
 13 14  2  0
 13 15  1  0
 15 16  1  0
 16 17  1  0
 17 18  1  0
 18 19  1  0
 19 20  1  0
 20 21  1  0
  8 22  2  0
 22 23  1  0
 23 24  2  0
 24  2  1  0
 24  6  1  0
 14  9  1  0
 21 11  1  0
 18 12  1  0
  3 25  1  0
  7 26  1  0
 10 27  1  0
 14 28  1  0
 15 29  1  0
 15 30  1  0
 16 31  1  0
 16 32  1  0
 17 33  1  0
 17 34  1  0
 19 35  1  0
 19 36  1  0
 20 37  1  0
 20 38  1  0
 21 39  1  0
 21 40  1  0
 22 41  1  0
 23 42  1  0
M  END
