
     RDKit          3D

 32 36  0  0  0  0  0  0  0  0999 V2000
    5.9612   -2.2822    2.1588 O   0  0  0  0  0  0  0  0  0  0  0  0
    5.2643   -1.9472    1.2231 C   0  0  0  0  0  0  0  0  0  0  0  0
    5.5826   -1.9288   -0.0999 N   0  0  0  0  0  0  0  0  0  0  0  0
    4.5515   -1.4929   -0.8745 C   0  0  0  0  0  0  0  0  0  0  0  0
    4.5248   -1.3654   -2.0813 O   0  0  0  0  0  0  0  0  0  0  0  0
    3.4473   -1.1968    0.0377 C   0  0  0  0  0  0  0  0  0  0  0  0
    2.1732   -0.7269   -0.2188 C   0  0  0  0  0  0  0  0  0  0  0  0
    1.3078   -0.5318    0.8734 C   0  0  0  0  0  0  0  0  0  0  0  0
   -0.0534   -0.0367    0.6701 C   0  0  0  0  0  0  0  0  0  0  0  0
   -1.1157    0.2520    1.5083 C   0  0  0  0  0  0  0  0  0  0  0  0
   -2.1821    0.7046    0.6879 C   0  0  0  0  0  0  0  0  0  0  0  0
   -3.4968    1.1439    0.8887 C   0  0  0  0  0  0  0  0  0  0  0  0
   -4.2467    1.5145   -0.2226 C   0  0  0  0  0  0  0  0  0  0  0  0
   -5.5315    1.9618   -0.2095 O   0  0  0  0  0  0  0  0  0  0  0  0
   -5.8751    2.2083   -1.5014 C   0  0  0  0  0  0  0  0  0  0  0  0
   -4.8261    1.9249   -2.3468 C   0  0  0  0  0  0  0  0  0  0  0  0
   -3.7609    1.4726   -1.5256 C   0  0  0  0  0  0  0  0  0  0  0  0
   -2.4460    1.0331   -1.7249 C   0  0  0  0  0  0  0  0  0  0  0  0
   -1.6972    0.6628   -0.6129 C   0  0  0  0  0  0  0  0  0  0  0  0
   -0.4142    0.2162   -0.6256 O   0  0  0  0  0  0  0  0  0  0  0  0
    1.7732   -0.8227    2.1839 C   0  0  0  0  0  0  0  0  0  0  0  0
    3.0709   -1.2987    2.4189 C   0  0  0  0  0  0  0  0  0  0  0  0
    3.8839   -1.4749    1.3202 C   0  0  0  0  0  0  0  0  0  0  0  0
    6.4793   -2.2060   -0.4655 H   0  0  0  0  0  0  0  0  0  0  0  0
    1.8665   -0.5198   -1.2404 H   0  0  0  0  0  0  0  0  0  0  0  0
   -1.1292    0.1513    2.5839 H   0  0  0  0  0  0  0  0  0  0  0  0
   -3.9293    1.1975    1.8822 H   0  0  0  0  0  0  0  0  0  0  0  0
   -6.8811    2.5743   -1.6534 H   0  0  0  0  0  0  0  0  0  0  0  0
   -4.8294    2.0314   -3.4222 H   0  0  0  0  0  0  0  0  0  0  0  0
   -2.0142    0.9797   -2.7189 H   0  0  0  0  0  0  0  0  0  0  0  0
    1.1187   -0.6782    3.0421 H   0  0  0  0  0  0  0  0  0  0  0  0
    3.4237   -1.5200    3.4212 H   0  0  0  0  0  0  0  0  0  0  0  0
  1  2  2  0
  2  3  1  0
  3  4  1  0
  4  5  2  0
  4  6  1  0
  6  7  2  0
  7  8  1  0
  8  9  1  0
  9 10  2  0
 10 11  1  0
 11 12  2  0
 12 13  1  0
 13 14  1  0
 14 15  1  0
 15 16  2  0
 16 17  1  0
 17 18  1  0
 18 19  2  0
 19 20  1  0
  8 21  2  0
 21 22  1  0
 22 23  2  0
 23  2  1  0
 23  6  1  0
 20  9  1  0
 19 11  1  0
 17 13  2  0
  3 24  1  0
  7 25  1  0
 10 26  1  0
 12 27  1  0
 15 28  1  0
 16 29  1  0
 18 30  1  0
 21 31  1  0
 22 32  1  0
M  END
