
     RDKit          3D

 29 32  0  0  0  0  0  0  0  0999 V2000
    6.0474    0.8721    0.0386 O   0  0  0  0  0  0  0  0  0  0  0  0
    5.1167    0.1935    0.4217 C   0  0  0  0  0  0  0  0  0  0  0  0
    5.1520   -0.9117    1.2154 N   0  0  0  0  0  0  0  0  0  0  0  0
    3.9117   -1.4227    1.4448 C   0  0  0  0  0  0  0  0  0  0  0  0
    3.6099   -2.3947    2.1064 O   0  0  0  0  0  0  0  0  0  0  0  0
    2.9720   -0.5624    0.7272 C   0  0  0  0  0  0  0  0  0  0  0  0
    1.5936   -0.6325    0.6264 C   0  0  0  0  0  0  0  0  0  0  0  0
    0.9238    0.3405   -0.1423 C   0  0  0  0  0  0  0  0  0  0  0  0
   -0.5563    0.2899   -0.2681 C   0  0  0  0  0  0  0  0  0  0  0  0
   -1.4469   -0.6178    0.2832 C   0  0  0  0  0  0  0  0  0  0  0  0
   -2.8234   -0.3711   -0.0438 C   0  0  0  0  0  0  0  0  0  0  0  0
   -3.9981   -1.0692    0.3266 C   0  0  0  0  0  0  0  0  0  0  0  0
   -5.2493   -0.6346   -0.1209 C   0  0  0  0  0  0  0  0  0  0  0  0
   -5.3514    0.4862   -0.9331 C   0  0  0  0  0  0  0  0  0  0  0  0
   -4.2085    1.1933   -1.3134 C   0  0  0  0  0  0  0  0  0  0  0  0
   -2.9509    0.7504   -0.8592 C   0  0  0  0  0  0  0  0  0  0  0  0
   -1.4215    1.4515   -1.1929 S   0  0  0  0  0  0  0  0  0  0  0  0
    1.7078    1.3477   -0.7762 C   0  0  0  0  0  0  0  0  0  0  0  0
    3.1061    1.3985   -0.6595 C   0  0  0  0  0  0  0  0  0  0  0  0
    3.7086    0.4245    0.1025 C   0  0  0  0  0  0  0  0  0  0  0  0
    5.9999   -1.3060    1.5899 H   0  0  0  0  0  0  0  0  0  0  0  0
    1.0728   -1.4329    1.1414 H   0  0  0  0  0  0  0  0  0  0  0  0
   -1.1473   -1.4483    0.9095 H   0  0  0  0  0  0  0  0  0  0  0  0
   -3.9304   -1.9485    0.9623 H   0  0  0  0  0  0  0  0  0  0  0  0
   -6.1448   -1.1786    0.1698 H   0  0  0  0  0  0  0  0  0  0  0  0
   -6.3280    0.8186   -1.2775 H   0  0  0  0  0  0  0  0  0  0  0  0
   -4.2906    2.0703   -1.9491 H   0  0  0  0  0  0  0  0  0  0  0  0
    1.2368    2.1214   -1.3807 H   0  0  0  0  0  0  0  0  0  0  0  0
    3.6885    2.1726   -1.1490 H   0  0  0  0  0  0  0  0  0  0  0  0
  1  2  2  0
  2  3  1  0
  3  4  1  0
  4  5  2  0
  4  6  1  0
  6  7  2  0
  7  8  1  0
  8  9  1  0
  9 10  2  0
 10 11  1  0
 11 12  2  0
 12 13  1  0
 13 14  2  0
 14 15  1  0
 15 16  2  0
 16 17  1  0
  8 18  2  0
 18 19  1  0
 19 20  2  0
 20  2  1  0
 20  6  1  0
 17  9  1  0
 16 11  1  0
  3 21  1  0
  7 22  1  0
 10 23  1  0
 12 24  1  0
 13 25  1  0
 14 26  1  0
 15 27  1  0
 18 28  1  0
 19 29  1  0
M  END
