
     RDKit          3D

 31 35  0  0  0  0  0  0  0  0999 V2000
   -6.3216    0.4792    1.4227 O   0  0  0  0  0  0  0  0  0  0  0  0
   -5.5214   -0.0067    0.6501 C   0  0  0  0  0  0  0  0  0  0  0  0
   -5.7660   -0.7967   -0.4307 N   0  0  0  0  0  0  0  0  0  0  0  0
   -4.6229   -1.1620   -1.0731 C   0  0  0  0  0  0  0  0  0  0  0  0
   -4.5071   -1.8570   -2.0615 O   0  0  0  0  0  0  0  0  0  0  0  0
   -3.5206   -0.5468   -0.3351 C   0  0  0  0  0  0  0  0  0  0  0  0
   -2.1565   -0.5946   -0.5573 C   0  0  0  0  0  0  0  0  0  0  0  0
   -1.3124    0.1034    0.3263 C   0  0  0  0  0  0  0  0  0  0  0  0
    0.1468    0.0752    0.1210 C   0  0  0  0  0  0  0  0  0  0  0  0
    0.9092   -0.5615   -0.8589 C   0  0  0  0  0  0  0  0  0  0  0  0
    2.2724   -0.2822   -0.6219 C   0  0  0  0  0  0  0  0  0  0  0  0
    3.3997   -0.6604   -1.2807 N   0  0  0  0  0  0  0  0  0  0  0  0
    4.5583   -0.1862   -0.7469 C   0  0  0  0  0  0  0  0  0  0  0  0
    5.9057   -0.3492   -1.1286 C   0  0  0  0  0  0  0  0  0  0  0  0
    6.6466    0.3650   -0.2109 C   0  0  0  0  0  0  0  0  0  0  0  0
    5.8411    0.9591    0.7142 O   0  0  0  0  0  0  0  0  0  0  0  0
    4.5627    0.6236    0.3887 C   0  0  0  0  0  0  0  0  0  0  0  0
    3.4583    1.0124    1.0596 N   0  0  0  0  0  0  0  0  0  0  0  0
    2.3317    0.5249    0.5036 C   0  0  0  0  0  0  0  0  0  0  0  0
    1.0552    0.7311    0.9380 N   0  0  0  0  0  0  0  0  0  0  0  0
   -1.8974    0.8236    1.4033 C   0  0  0  0  0  0  0  0  0  0  0  0
   -3.2854    0.8570    1.6079 C   0  0  0  0  0  0  0  0  0  0  0  0
   -4.0703    0.1590    0.7176 C   0  0  0  0  0  0  0  0  0  0  0  0
   -6.6878   -1.0793   -0.7224 H   0  0  0  0  0  0  0  0  0  0  0  0
   -1.7768   -1.1642   -1.3995 H   0  0  0  0  0  0  0  0  0  0  0  0
    0.5347   -1.1702   -1.6704 H   0  0  0  0  0  0  0  0  0  0  0  0
    6.2858   -0.9150   -1.9657 H   0  0  0  0  0  0  0  0  0  0  0  0
    7.7058    0.5424   -0.0822 H   0  0  0  0  0  0  0  0  0  0  0  0
    0.8396    1.2910    1.7480 H   0  0  0  0  0  0  0  0  0  0  0  0
   -1.2812    1.3761    2.1086 H   0  0  0  0  0  0  0  0  0  0  0  0
   -3.7262    1.4088    2.4322 H   0  0  0  0  0  0  0  0  0  0  0  0
  1  2  2  0
  2  3  1  0
  3  4  1  0
  4  5  2  0
  4  6  1  0
  6  7  2  0
  7  8  1  0
  8  9  1  0
  9 10  2  0
 10 11  1  0
 11 12  2  0
 12 13  1  0
 13 14  1  0
 14 15  2  0
 15 16  1  0
 16 17  1  0
 17 18  1  0
 18 19  2  0
 19 20  1  0
  8 21  2  0
 21 22  1  0
 22 23  2  0
 23  2  1  0
 23  6  1  0
 20  9  1  0
 19 11  1  0
 17 13  2  0
  3 24  1  0
  7 25  1  0
 10 26  1  0
 14 27  1  0
 15 28  1  0
 20 29  1  0
 21 30  1  0
 22 31  1  0
M  END
