
     RDKit          3D

 38 42  0  0  0  0  0  0  0  0999 V2000
   -7.3882   -0.6318   -0.5948 O   0  0  0  0  0  0  0  0  0  0  0  0
   -6.4381    0.1165   -0.4904 C   0  0  0  0  0  0  0  0  0  0  0  0
   -6.4199    1.4730   -0.6008 N   0  0  0  0  0  0  0  0  0  0  0  0
   -5.1711    1.9886   -0.4363 C   0  0  0  0  0  0  0  0  0  0  0  0
   -4.8253    3.1511   -0.4895 O   0  0  0  0  0  0  0  0  0  0  0  0
   -4.2861    0.8527   -0.1837 C   0  0  0  0  0  0  0  0  0  0  0  0
   -2.9251    0.8143    0.0541 C   0  0  0  0  0  0  0  0  0  0  0  0
   -2.3248   -0.4417    0.2648 C   0  0  0  0  0  0  0  0  0  0  0  0
   -0.8776   -0.5476    0.5224 C   0  0  0  0  0  0  0  0  0  0  0  0
   -0.3934   -1.2490    1.6401 C   0  0  0  0  0  0  0  0  0  0  0  0
    0.9778   -1.3621    1.8797 C   0  0  0  0  0  0  0  0  0  0  0  0
    1.8845   -0.7647    1.0020 C   0  0  0  0  0  0  0  0  0  0  0  0
    3.3453   -0.8829    1.2388 C   0  0  0  0  0  0  0  0  0  0  0  0
    3.7725   -1.5149    2.1998 O   0  0  0  0  0  0  0  0  0  0  0  0
    4.2759   -0.2166    0.2935 C   0  0  0  0  0  0  0  0  0  0  0  0
    5.6581   -0.2902    0.4950 C   0  0  0  0  0  0  0  0  0  0  0  0
    6.5198    0.3356   -0.4047 C   0  0  0  0  0  0  0  0  0  0  0  0
    6.0010    1.0242   -1.5018 C   0  0  0  0  0  0  0  0  0  0  0  0
    4.6188    1.0956   -1.7009 C   0  0  0  0  0  0  0  0  0  0  0  0
    3.7417    0.4924   -0.7944 C   0  0  0  0  0  0  0  0  0  0  0  0
    2.3549    0.5124   -1.0154 N   0  0  0  0  0  0  0  0  0  0  0  0
    1.4343   -0.0374   -0.1084 C   0  0  0  0  0  0  0  0  0  0  0  0
    0.0568    0.0475   -0.3478 C   0  0  0  0  0  0  0  0  0  0  0  0
   -3.1389   -1.6081    0.2238 C   0  0  0  0  0  0  0  0  0  0  0  0
   -4.5177   -1.5431   -0.0181 C   0  0  0  0  0  0  0  0  0  0  0  0
   -5.0608   -0.2926   -0.2178 C   0  0  0  0  0  0  0  0  0  0  0  0
   -7.2362    2.0304   -0.7946 H   0  0  0  0  0  0  0  0  0  0  0  0
   -2.3518    1.7366    0.0864 H   0  0  0  0  0  0  0  0  0  0  0  0
   -1.0847   -1.7125    2.3419 H   0  0  0  0  0  0  0  0  0  0  0  0
    1.3359   -1.9140    2.7461 H   0  0  0  0  0  0  0  0  0  0  0  0
    6.0600   -0.8352    1.3461 H   0  0  0  0  0  0  0  0  0  0  0  0
    7.5952    0.2799   -0.2539 H   0  0  0  0  0  0  0  0  0  0  0  0
    6.6757    1.5019   -2.2085 H   0  0  0  0  0  0  0  0  0  0  0  0
    4.2371    1.6234   -2.5707 H   0  0  0  0  0  0  0  0  0  0  0  0
    2.0073    1.2200   -1.6503 H   0  0  0  0  0  0  0  0  0  0  0  0
   -0.2962    0.5728   -1.2329 H   0  0  0  0  0  0  0  0  0  0  0  0
   -2.6841   -2.5879    0.3730 H   0  0  0  0  0  0  0  0  0  0  0  0
   -5.1327   -2.4367   -0.0505 H   0  0  0  0  0  0  0  0  0  0  0  0
  1  2  2  0
  2  3  1  0
  3  4  1  0
  4  5  2  0
  4  6  1  0
  6  7  2  0
  7  8  1  0
  8  9  1  0
  9 10  2  0
 10 11  1  0
 11 12  2  0
 12 13  1  0
 13 14  2  0
 13 15  1  0
 15 16  2  0
 16 17  1  0
 17 18  2  0
 18 19  1  0
 19 20  2  0
 20 21  1  0
 21 22  1  0
 22 23  2  0
  8 24  2  0
 24 25  1  0
 25 26  2  0
 26  2  1  0
 26  6  1  0
 23  9  1  0
 22 12  1  0
 20 15  1  0
  3 27  1  0
  7 28  1  0
 10 29  1  0
 11 30  1  0
 16 31  1  0
 17 32  1  0
 18 33  1  0
 19 34  1  0
 21 35  1  0
 23 36  1  0
 24 37  1  0
 25 38  1  0
M  END
