
     RDKit          3D

 37 41  0  0  0  0  0  0  0  0999 V2000
   -7.2574   -0.2774   -1.0351 O   0  0  0  0  0  0  0  0  0  0  0  0
   -6.2810    0.4022   -0.7933 C   0  0  0  0  0  0  0  0  0  0  0  0
   -6.1845    1.7598   -0.7769 N   0  0  0  0  0  0  0  0  0  0  0  0
   -4.9282    2.1855   -0.4719 C   0  0  0  0  0  0  0  0  0  0  0  0
   -4.5217    3.3264   -0.3896 O   0  0  0  0  0  0  0  0  0  0  0  0
   -4.1250    0.9821   -0.2609 C   0  0  0  0  0  0  0  0  0  0  0  0
   -2.7911    0.8433    0.0729 C   0  0  0  0  0  0  0  0  0  0  0  0
   -2.2750   -0.4594    0.2106 C   0  0  0  0  0  0  0  0  0  0  0  0
   -0.8609   -0.6721    0.5644 C   0  0  0  0  0  0  0  0  0  0  0  0
   -0.5008   -1.4883    1.6440 C   0  0  0  0  0  0  0  0  0  0  0  0
    0.8426   -1.6958    1.9679 C   0  0  0  0  0  0  0  0  0  0  0  0
    1.8611   -1.0868    1.2238 C   0  0  0  0  0  0  0  0  0  0  0  0
    1.5274   -0.2460    0.1516 C   0  0  0  0  0  0  0  0  0  0  0  0
    0.1705   -0.0648   -0.1737 C   0  0  0  0  0  0  0  0  0  0  0  0
    2.5043    0.3567   -0.6616 N   0  0  0  0  0  0  0  0  0  0  0  0
    3.8964    0.3269   -0.4611 C   0  0  0  0  0  0  0  0  0  0  0  0
    4.7231    1.0360   -1.3480 C   0  0  0  0  0  0  0  0  0  0  0  0
    6.1128    1.0043   -1.2181 C   0  0  0  0  0  0  0  0  0  0  0  0
    6.6971    0.2498   -0.2068 C   0  0  0  0  0  0  0  0  0  0  0  0
    5.8907   -0.4772    0.6690 C   0  0  0  0  0  0  0  0  0  0  0  0
    4.4930   -0.4511    0.5454 C   0  0  0  0  0  0  0  0  0  0  0  0
    3.5458   -1.4233    1.7047 S   0  0  0  0  0  0  0  0  0  0  0  0
   -3.1421   -1.5682    0.0014 C   0  0  0  0  0  0  0  0  0  0  0  0
   -4.4921   -1.4016   -0.3354 C   0  0  0  0  0  0  0  0  0  0  0  0
   -4.9523   -0.1087   -0.4584 C   0  0  0  0  0  0  0  0  0  0  0  0
   -6.9534    2.3788   -0.9772 H   0  0  0  0  0  0  0  0  0  0  0  0
   -2.1746    1.7236    0.2328 H   0  0  0  0  0  0  0  0  0  0  0  0
   -1.2649   -1.9696    2.2514 H   0  0  0  0  0  0  0  0  0  0  0  0
    1.0881   -2.3405    2.8092 H   0  0  0  0  0  0  0  0  0  0  0  0
   -0.0867    0.5540   -1.0313 H   0  0  0  0  0  0  0  0  0  0  0  0
    2.1729    1.0994   -1.2631 H   0  0  0  0  0  0  0  0  0  0  0  0
    4.2873    1.6212   -2.1537 H   0  0  0  0  0  0  0  0  0  0  0  0
    6.7368    1.5643   -1.9099 H   0  0  0  0  0  0  0  0  0  0  0  0
    7.7785    0.2199   -0.1018 H   0  0  0  0  0  0  0  0  0  0  0  0
    6.3616   -1.0702    1.4501 H   0  0  0  0  0  0  0  0  0  0  0  0
   -2.7507   -2.5819    0.0922 H   0  0  0  0  0  0  0  0  0  0  0  0
   -5.1475   -2.2514   -0.4964 H   0  0  0  0  0  0  0  0  0  0  0  0
  1  2  2  0
  2  3  1  0
  3  4  1  0
  4  5  2  0
  4  6  1  0
  6  7  2  0
  7  8  1  0
  8  9  1  0
  9 10  2  0
 10 11  1  0
 11 12  2  0
 12 13  1  0
 13 14  2  0
 13 15  1  0
 15 16  1  0
 16 17  2  0
 17 18  1  0
 18 19  2  0
 19 20  1  0
 20 21  2  0
 21 22  1  0
  8 23  2  0
 23 24  1  0
 24 25  2  0
 25  2  1  0
 25  6  1  0
 14  9  1  0
 21 16  1  0
 22 12  1  0
  3 26  1  0
  7 27  1  0
 10 28  1  0
 11 29  1  0
 14 30  1  0
 15 31  1  0
 17 32  1  0
 18 33  1  0
 19 34  1  0
 20 35  1  0
 23 36  1  0
 24 37  1  0
M  END
