
     RDKit          3D

 37 41  0  0  0  0  0  0  0  0999 V2000
   -7.2573   -0.6881    0.4118 O   0  0  0  0  0  0  0  0  0  0  0  0
   -6.3573    0.1148    0.5489 C   0  0  0  0  0  0  0  0  0  0  0  0
   -6.4498    1.4347    0.8683 N   0  0  0  0  0  0  0  0  0  0  0  0
   -5.2306    2.0342    0.9490 C   0  0  0  0  0  0  0  0  0  0  0  0
   -4.9798    3.1899    1.2232 O   0  0  0  0  0  0  0  0  0  0  0  0
   -4.2421    1.0011    0.6435 C   0  0  0  0  0  0  0  0  0  0  0  0
   -2.8631    1.0715    0.5827 C   0  0  0  0  0  0  0  0  0  0  0  0
   -2.1528   -0.1009    0.2605 C   0  0  0  0  0  0  0  0  0  0  0  0
   -0.6815   -0.0896    0.1797 C   0  0  0  0  0  0  0  0  0  0  0  0
    0.0984    0.4317    1.2132 C   0  0  0  0  0  0  0  0  0  0  0  0
    1.4933    0.4336    1.1215 C   0  0  0  0  0  0  0  0  0  0  0  0
    2.1646   -0.0871   -0.0109 C   0  0  0  0  0  0  0  0  0  0  0  0
    1.3736   -0.6139   -1.0564 C   0  0  0  0  0  0  0  0  0  0  0  0
   -0.0114   -0.6035   -0.9415 C   0  0  0  0  0  0  0  0  0  0  0  0
    1.8927   -1.1334   -2.1753 N   0  0  0  0  0  0  0  0  0  0  0  0
    3.2363   -1.1494   -2.3014 C   0  0  0  0  0  0  0  0  0  0  0  0
    4.1279   -0.6655   -1.3520 C   0  0  0  0  0  0  0  0  0  0  0  0
    5.5184   -0.7208   -1.5628 C   0  0  0  0  0  0  0  0  0  0  0  0
    6.4016   -0.2327   -0.6043 C   0  0  0  0  0  0  0  0  0  0  0  0
    5.9032    0.3136    0.5701 C   0  0  0  0  0  0  0  0  0  0  0  0
    4.5221    0.3710    0.7844 C   0  0  0  0  0  0  0  0  0  0  0  0
    3.5916   -0.1163   -0.1688 C   0  0  0  0  0  0  0  0  0  0  0  0
   -2.8813   -1.2986    0.0140 C   0  0  0  0  0  0  0  0  0  0  0  0
   -4.2803   -1.3448    0.0811 C   0  0  0  0  0  0  0  0  0  0  0  0
   -4.9313   -0.1730    0.3991 C   0  0  0  0  0  0  0  0  0  0  0  0
   -7.3213    1.9109    1.0362 H   0  0  0  0  0  0  0  0  0  0  0  0
   -2.3576    2.0152    0.7683 H   0  0  0  0  0  0  0  0  0  0  0  0
   -0.3682    0.8338    2.1107 H   0  0  0  0  0  0  0  0  0  0  0  0
    2.0481    0.8498    1.9577 H   0  0  0  0  0  0  0  0  0  0  0  0
   -0.5867   -1.0061   -1.7743 H   0  0  0  0  0  0  0  0  0  0  0  0
    3.5884   -1.5841   -3.2339 H   0  0  0  0  0  0  0  0  0  0  0  0
    5.9209   -1.1466   -2.4798 H   0  0  0  0  0  0  0  0  0  0  0  0
    7.4740   -0.2788   -0.7747 H   0  0  0  0  0  0  0  0  0  0  0  0
    6.5854    0.6977    1.3245 H   0  0  0  0  0  0  0  0  0  0  0  0
    4.1840    0.8085    1.7198 H   0  0  0  0  0  0  0  0  0  0  0  0
   -2.3433   -2.2165   -0.2257 H   0  0  0  0  0  0  0  0  0  0  0  0
   -4.8288   -2.2622   -0.1064 H   0  0  0  0  0  0  0  0  0  0  0  0
  1  2  2  0
  2  3  1  0
  3  4  1  0
  4  5  2  0
  4  6  1  0
  6  7  2  0
  7  8  1  0
  8  9  1  0
  9 10  2  0
 10 11  1  0
 11 12  2  0
 12 13  1  0
 13 14  2  0
 13 15  1  0
 15 16  2  0
 16 17  1  0
 17 18  2  0
 18 19  1  0
 19 20  2  0
 20 21  1  0
 21 22  2  0
  8 23  2  0
 23 24  1  0
 24 25  2  0
 25  2  1  0
 25  6  1  0
 14  9  1  0
 22 17  1  0
 22 12  1  0
  3 26  1  0
  7 27  1  0
 10 28  1  0
 11 29  1  0
 14 30  1  0
 16 31  1  0
 18 32  1  0
 19 33  1  0
 20 34  1  0
 21 35  1  0
 23 36  1  0
 24 37  1  0
M  END
