
     RDKit          3D

 43 49  0  0  0  0  0  0  0  0999 V2000
   -1.3674   -1.7291    1.7811 Si  0  0  0  0  0  4  0  0  0  0  0  0
    0.2288   -1.1134    1.0077 C   0  0  0  0  0  0  0  0  0  0  0  0
    1.6019   -1.2949    1.1095 C   0  0  0  0  0  0  0  0  0  0  0  0
    2.1691   -0.4509    0.1575 C   0  0  0  0  0  0  0  0  0  0  0  0
    1.1367    0.2083   -0.4987 N   0  0  0  0  0  0  0  0  0  0  0  0
   -0.0551   -0.1921    0.0246 C   0  0  0  0  0  0  0  0  0  0  0  0
   -1.4279    0.1457   -0.2490 C   0  0  0  0  0  0  0  0  0  0  0  0
   -2.4034   -0.5457    0.5656 C   0  0  0  0  0  0  0  0  0  0  0  0
   -3.8401   -0.3833    0.4843 C   0  0  0  0  0  0  0  0  0  0  0  0
   -4.7535   -1.0806    1.3009 C   0  0  0  0  0  0  0  0  0  0  0  0
   -6.1382   -0.8926    1.1884 C   0  0  0  0  0  0  0  0  0  0  0  0
   -6.6625   -0.0008    0.2558 C   0  0  0  0  0  0  0  0  0  0  0  0
   -5.8080    0.7144   -0.5763 C   0  0  0  0  0  0  0  0  0  0  0  0
   -4.4114    0.5303   -0.4688 C   0  0  0  0  0  0  0  0  0  0  0  0
   -3.4317    1.1966   -1.2557 C   0  0  0  0  0  0  0  0  0  0  0  0
   -3.6205    2.1241   -2.2484 C   0  0  0  0  0  0  0  0  0  0  0  0
   -2.4111    2.5172   -2.7534 O   0  0  0  0  0  0  0  0  0  0  0  0
   -1.4378    1.8339   -2.0758 C   0  0  0  0  0  0  0  0  0  0  0  0
   -2.0172    1.0115   -1.1483 C   0  0  0  0  0  0  0  0  0  0  0  0
    3.5590   -0.2277   -0.1913 C   0  0  0  0  0  0  0  0  0  0  0  0
    4.0742   -0.4127   -1.4966 C   0  0  0  0  0  0  0  0  0  0  0  0
    5.4463   -0.2010   -1.8495 C   0  0  0  0  0  0  0  0  0  0  0  0
    6.4394    0.2194   -0.9384 C   0  0  0  0  0  0  0  0  0  0  0  0
    5.9248    0.4058    0.3451 C   0  0  0  0  0  0  0  0  0  0  0  0
    6.7040    0.8223    1.3960 C   0  0  0  0  0  0  0  0  0  0  0  0
    5.7768    0.9770    2.8346 S   0  0  0  0  0  0  0  0  0  0  0  0
    4.3296    0.4868    2.0447 C   0  0  0  0  0  0  0  0  0  0  0  0
    4.5447    0.1940    0.7175 C   0  0  0  0  0  0  0  0  0  0  0  0
   -1.5712   -1.3120    3.1930 H   0  0  0  0  0  0  0  0  0  0  0  0
   -1.6846   -3.1529    1.4967 H   0  0  0  0  0  0  0  0  0  0  0  0
    2.1483   -1.9523    1.7743 H   0  0  0  0  0  0  0  0  0  0  0  0
    1.2690    0.8888   -1.2329 H   0  0  0  0  0  0  0  0  0  0  0  0
   -4.4066   -1.7901    2.0477 H   0  0  0  0  0  0  0  0  0  0  0  0
   -6.8100   -1.4500    1.8374 H   0  0  0  0  0  0  0  0  0  0  0  0
   -7.7381    0.1357    0.1790 H   0  0  0  0  0  0  0  0  0  0  0  0
   -6.2259    1.4075   -1.3002 H   0  0  0  0  0  0  0  0  0  0  0  0
   -4.4821    2.5938   -2.7006 H   0  0  0  0  0  0  0  0  0  0  0  0
   -0.4273    2.0576   -2.3817 H   0  0  0  0  0  0  0  0  0  0  0  0
    3.3998   -0.7553   -2.2821 H   0  0  0  0  0  0  0  0  0  0  0  0
    5.7398   -0.3816   -2.8844 H   0  0  0  0  0  0  0  0  0  0  0  0
    7.4709    0.3729   -1.2265 H   0  0  0  0  0  0  0  0  0  0  0  0
    7.7606    1.0510    1.4094 H   0  0  0  0  0  0  0  0  0  0  0  0
    3.4078    0.4468    2.6082 H   0  0  0  0  0  0  0  0  0  0  0  0
  1  2  1  0
  2  3  1  0
  3  4  2  0
  4  5  1  0
  5  6  1  0
  6  7  1  0
  7  8  2  0
  8  9  1  0
  9 10  2  0
 10 11  1  0
 11 12  2  0
 12 13  1  0
 13 14  2  0
 14 15  1  0
 15 16  2  0
 16 17  1  0
 17 18  1  0
 18 19  2  0
  4 20  1  0
 20 21  2  0
 21 22  1  0
 22 23  2  0
 23 24  1  0
 24 25  2  0
 25 26  1  0
 26 27  1  0
 27 28  2  0
  8  1  1  0
 14  9  1  0
 19 15  1  0
 28 20  1  0
  6  2  2  0
 19  7  1  0
 28 24  1  0
  1 29  1  0
  1 30  1  0
  3 31  1  0
  5 32  1  0
 10 33  1  0
 11 34  1  0
 12 35  1  0
 13 36  1  0
 16 37  1  0
 18 38  1  0
 21 39  1  0
 22 40  1  0
 23 41  1  0
 25 42  1  0
 27 43  1  0
M  END
