
     RDKit          3D

 34 38  0  0  0  0  0  0  0  0999 V2000
    4.8725    1.5334   -2.1502 O   0  0  0  0  0  0  0  0  0  0  0  0
    4.3644    1.0784   -1.1462 C   0  0  0  0  0  0  0  0  0  0  0  0
    4.8728    1.0500    0.1160 N   0  0  0  0  0  0  0  0  0  0  0  0
    4.0212    0.4684    1.0043 C   0  0  0  0  0  0  0  0  0  0  0  0
    4.1810    0.2988    2.1954 O   0  0  0  0  0  0  0  0  0  0  0  0
    2.8373    0.0733    0.2425 C   0  0  0  0  0  0  0  0  0  0  0  0
    1.6765   -0.5536    0.6521 C   0  0  0  0  0  0  0  0  0  0  0  0
    0.6931   -0.8082   -0.3199 C   0  0  0  0  0  0  0  0  0  0  0  0
   -0.5540   -1.4744    0.0498 C   0  0  0  0  0  0  0  0  0  0  0  0
   -0.6227   -2.8782    0.1736 C   0  0  0  0  0  0  0  0  0  0  0  0
   -1.8117   -3.5235    0.5184 C   0  0  0  0  0  0  0  0  0  0  0  0
   -2.9787   -2.7959    0.7535 C   0  0  0  0  0  0  0  0  0  0  0  0
   -2.8906   -1.4104    0.6304 C   0  0  0  0  0  0  0  0  0  0  0  0
   -3.9263   -0.5538    0.8251 O   0  0  0  0  0  0  0  0  0  0  0  0
   -3.4532    0.7042    0.6231 C   0  0  0  0  0  0  0  0  0  0  0  0
   -4.2286    1.7982    0.7403 N   0  0  0  0  0  0  0  0  0  0  0  0
   -3.5647    2.9490    0.5048 C   0  0  0  0  0  0  0  0  0  0  0  0
   -2.2214    3.0545    0.1715 C   0  0  0  0  0  0  0  0  0  0  0  0
   -1.4572    1.8924    0.0597 C   0  0  0  0  0  0  0  0  0  0  0  0
   -2.0984    0.6622    0.2934 C   0  0  0  0  0  0  0  0  0  0  0  0
   -1.7291   -0.7204    0.2916 C   0  0  0  0  0  0  0  0  0  0  0  0
    0.9251   -0.4246   -1.6684 C   0  0  0  0  0  0  0  0  0  0  0  0
    2.1104    0.2112   -2.0575 C   0  0  0  0  0  0  0  0  0  0  0  0
    3.0479    0.4458   -1.0739 C   0  0  0  0  0  0  0  0  0  0  0  0
    5.7749    1.4224    0.3659 H   0  0  0  0  0  0  0  0  0  0  0  0
    1.5373   -0.8336    1.6927 H   0  0  0  0  0  0  0  0  0  0  0  0
    0.2680   -3.4792   -0.0062 H   0  0  0  0  0  0  0  0  0  0  0  0
   -1.8309   -4.6082    0.6044 H   0  0  0  0  0  0  0  0  0  0  0  0
   -3.9122   -3.2773    1.0216 H   0  0  0  0  0  0  0  0  0  0  0  0
   -4.1749    3.8454    0.5963 H   0  0  0  0  0  0  0  0  0  0  0  0
   -1.7743    4.0289    0.0020 H   0  0  0  0  0  0  0  0  0  0  0  0
   -0.4051    1.9481   -0.1964 H   0  0  0  0  0  0  0  0  0  0  0  0
    0.1641   -0.6281   -2.4225 H   0  0  0  0  0  0  0  0  0  0  0  0
    2.2875    0.5050   -3.0871 H   0  0  0  0  0  0  0  0  0  0  0  0
  1  2  2  0
  2  3  1  0
  3  4  1  0
  4  5  2  0
  4  6  1  0
  6  7  2  0
  7  8  1  0
  8  9  1  0
  9 10  2  0
 10 11  1  0
 11 12  2  0
 12 13  1  0
 13 14  1  0
 14 15  1  0
 15 16  2  0
 16 17  1  0
 17 18  2  0
 18 19  1  0
 19 20  2  0
 20 21  1  0
  8 22  2  0
 22 23  1  0
 23 24  2  0
 24  2  1  0
 24  6  1  0
 21  9  1  0
 21 13  2  0
 20 15  1  0
  3 25  1  0
  7 26  1  0
 10 27  1  0
 11 28  1  0
 12 29  1  0
 17 30  1  0
 18 31  1  0
 19 32  1  0
 22 33  1  0
 23 34  1  0
M  END
