
     RDKit          3D

 34 38  0  0  0  0  0  0  0  0999 V2000
    4.7509   -2.4818    0.9812 O   0  0  0  0  0  0  0  0  0  0  0  0
    4.2122   -1.6976    0.2274 C   0  0  0  0  0  0  0  0  0  0  0  0
    4.6178   -1.3070   -1.0115 N   0  0  0  0  0  0  0  0  0  0  0  0
    3.7610   -0.4152   -1.5799 C   0  0  0  0  0  0  0  0  0  0  0  0
    3.8410    0.1107   -2.6708 O   0  0  0  0  0  0  0  0  0  0  0  0
    2.6880   -0.1990   -0.6104 C   0  0  0  0  0  0  0  0  0  0  0  0
    1.5677    0.6063   -0.6785 C   0  0  0  0  0  0  0  0  0  0  0  0
    0.6957    0.6073    0.4252 C   0  0  0  0  0  0  0  0  0  0  0  0
   -0.4964    1.4574    0.4237 C   0  0  0  0  0  0  0  0  0  0  0  0
   -0.3872    2.7874    0.8791 C   0  0  0  0  0  0  0  0  0  0  0  0
   -1.4853    3.6304    0.9019 C   0  0  0  0  0  0  0  0  0  0  0  0
   -2.7244    3.1697    0.4716 C   0  0  0  0  0  0  0  0  0  0  0  0
   -2.8476    1.8419    0.0127 C   0  0  0  0  0  0  0  0  0  0  0  0
   -4.2999    1.1172   -0.5505 S   0  0  0  0  0  0  0  0  0  0  0  0
   -3.5336   -0.3583   -0.8610 C   0  0  0  0  0  0  0  0  0  0  0  0
   -4.2455   -1.3916   -1.3599 N   0  0  0  0  0  0  0  0  0  0  0  0
   -3.5303   -2.5107   -1.5690 C   0  0  0  0  0  0  0  0  0  0  0  0
   -2.1814   -2.6500   -1.3129 C   0  0  0  0  0  0  0  0  0  0  0  0
   -1.4867   -1.5578   -0.7967 C   0  0  0  0  0  0  0  0  0  0  0  0
   -2.1775   -0.3450   -0.5515 C   0  0  0  0  0  0  0  0  0  0  0  0
   -1.7605    0.9559   -0.0289 C   0  0  0  0  0  0  0  0  0  0  0  0
    0.9965   -0.1971    1.5576 C   0  0  0  0  0  0  0  0  0  0  0  0
    2.1385   -1.0061    1.6003 C   0  0  0  0  0  0  0  0  0  0  0  0
    2.9647   -0.9833    0.4963 C   0  0  0  0  0  0  0  0  0  0  0  0
    5.4548   -1.6437   -1.4598 H   0  0  0  0  0  0  0  0  0  0  0  0
    1.3752    1.2137   -1.5587 H   0  0  0  0  0  0  0  0  0  0  0  0
    0.5751    3.1654    1.2214 H   0  0  0  0  0  0  0  0  0  0  0  0
   -1.3813    4.6531    1.2563 H   0  0  0  0  0  0  0  0  0  0  0  0
   -3.5888    3.8292    0.4889 H   0  0  0  0  0  0  0  0  0  0  0  0
   -4.1012   -3.3439   -1.9723 H   0  0  0  0  0  0  0  0  0  0  0  0
   -1.6754   -3.5888   -1.5103 H   0  0  0  0  0  0  0  0  0  0  0  0
   -0.4270   -1.6584   -0.5937 H   0  0  0  0  0  0  0  0  0  0  0  0
    0.3236   -0.1877    2.4156 H   0  0  0  0  0  0  0  0  0  0  0  0
    2.3677   -1.6224    2.4638 H   0  0  0  0  0  0  0  0  0  0  0  0
  1  2  2  0
  2  3  1  0
  3  4  1  0
  4  5  2  0
  4  6  1  0
  6  7  2  0
  7  8  1  0
  8  9  1  0
  9 10  2  0
 10 11  1  0
 11 12  2  0
 12 13  1  0
 13 14  1  0
 14 15  1  0
 15 16  2  0
 16 17  1  0
 17 18  2  0
 18 19  1  0
 19 20  2  0
 20 21  1  0
  8 22  2  0
 22 23  1  0
 23 24  2  0
 24  2  1  0
 24  6  1  0
 21  9  1  0
 21 13  2  0
 20 15  1  0
  3 25  1  0
  7 26  1  0
 10 27  1  0
 11 28  1  0
 12 29  1  0
 17 30  1  0
 18 31  1  0
 19 32  1  0
 22 33  1  0
 23 34  1  0
M  END
