
     RDKit          3D

 33 37  0  0  0  0  0  0  0  0999 V2000
    6.0992    0.8423   -1.7770 O   0  0  0  0  0  0  0  0  0  0  0  0
    5.4644    0.7336   -0.7482 C   0  0  0  0  0  0  0  0  0  0  0  0
    5.8835    0.9541    0.5278 N   0  0  0  0  0  0  0  0  0  0  0  0
    4.8975    0.7377    1.4407 C   0  0  0  0  0  0  0  0  0  0  0  0
    4.9535    0.8489    2.6480 O   0  0  0  0  0  0  0  0  0  0  0  0
    3.7148    0.3325    0.6824 C   0  0  0  0  0  0  0  0  0  0  0  0
    2.4450   -0.0032    1.1148 C   0  0  0  0  0  0  0  0  0  0  0  0
    1.4866   -0.3561    0.1451 C   0  0  0  0  0  0  0  0  0  0  0  0
    0.1173   -0.7203    0.5404 C   0  0  0  0  0  0  0  0  0  0  0  0
   -0.1371   -1.7014    1.4977 C   0  0  0  0  0  0  0  0  0  0  0  0
   -1.3516   -2.1082    1.9296 N   0  0  0  0  0  0  0  0  0  0  0  0
   -2.3862   -1.4701    1.3454 C   0  0  0  0  0  0  0  0  0  0  0  0
   -3.9875   -1.8542    1.7674 S   0  0  0  0  0  0  0  0  0  0  0  0
   -4.6084   -0.7044    0.6792 C   0  0  0  0  0  0  0  0  0  0  0  0
   -5.9411   -0.5288    0.5537 N   0  0  0  0  0  0  0  0  0  0  0  0
   -6.2924    0.4143   -0.3419 C   0  0  0  0  0  0  0  0  0  0  0  0
   -5.4128    1.1690   -1.0972 C   0  0  0  0  0  0  0  0  0  0  0  0
   -4.0453    0.9569   -0.9389 C   0  0  0  0  0  0  0  0  0  0  0  0
   -3.6135   -0.0198   -0.0133 C   0  0  0  0  0  0  0  0  0  0  0  0
   -2.3026   -0.4739    0.3791 C   0  0  0  0  0  0  0  0  0  0  0  0
   -1.0013   -0.0957   -0.0291 C   0  0  0  0  0  0  0  0  0  0  0  0
    1.8644   -0.3529   -1.2272 C   0  0  0  0  0  0  0  0  0  0  0  0
    3.1586   -0.0088   -1.6402 C   0  0  0  0  0  0  0  0  0  0  0  0
    4.0617    0.3304   -0.6563 C   0  0  0  0  0  0  0  0  0  0  0  0
    6.8169    1.2465    0.7691 H   0  0  0  0  0  0  0  0  0  0  0  0
    2.2091    0.0231    2.1756 H   0  0  0  0  0  0  0  0  0  0  0  0
    0.6870   -2.2332    1.9722 H   0  0  0  0  0  0  0  0  0  0  0  0
   -7.3658    0.5593   -0.4453 H   0  0  0  0  0  0  0  0  0  0  0  0
   -5.7838    1.9102   -1.7973 H   0  0  0  0  0  0  0  0  0  0  0  0
   -3.3302    1.5341   -1.5172 H   0  0  0  0  0  0  0  0  0  0  0  0
   -0.8792    0.6869   -0.7732 H   0  0  0  0  0  0  0  0  0  0  0  0
    1.1373   -0.6372   -1.9886 H   0  0  0  0  0  0  0  0  0  0  0  0
    3.4420   -0.0115   -2.6879 H   0  0  0  0  0  0  0  0  0  0  0  0
  1  2  2  0
  2  3  1  0
  3  4  1  0
  4  5  2  0
  4  6  1  0
  6  7  2  0
  7  8  1  0
  8  9  1  0
  9 10  2  0
 10 11  1  0
 11 12  2  0
 12 13  1  0
 13 14  1  0
 14 15  2  0
 15 16  1  0
 16 17  2  0
 17 18  1  0
 18 19  2  0
 19 20  1  0
 20 21  2  0
  8 22  2  0
 22 23  1  0
 23 24  2  0
 24  2  1  0
 24  6  1  0
 21  9  1  0
 20 12  1  0
 19 14  1  0
  3 25  1  0
  7 26  1  0
 10 27  1  0
 16 28  1  0
 17 29  1  0
 18 30  1  0
 21 31  1  0
 22 32  1  0
 23 33  1  0
M  END
