
     RDKit          3D

 30 34  0  0  0  0  0  0  0  0999 V2000
    6.2258   -1.1425    1.2500 O   0  0  0  0  0  0  0  0  0  0  0  0
    5.4013   -0.3544    0.8352 C   0  0  0  0  0  0  0  0  0  0  0  0
    5.6028    0.9110    0.3762 N   0  0  0  0  0  0  0  0  0  0  0  0
    4.4449    1.5117   -0.0119 C   0  0  0  0  0  0  0  0  0  0  0  0
    4.2923    2.6286   -0.4618 O   0  0  0  0  0  0  0  0  0  0  0  0
    3.3779    0.5383    0.2173 C   0  0  0  0  0  0  0  0  0  0  0  0
    2.0165    0.6342   -0.0045 C   0  0  0  0  0  0  0  0  0  0  0  0
    1.2214   -0.4801    0.3158 C   0  0  0  0  0  0  0  0  0  0  0  0
   -0.2271   -0.4707    0.1154 C   0  0  0  0  0  0  0  0  0  0  0  0
   -1.1038   -1.4287    0.3645 N   0  0  0  0  0  0  0  0  0  0  0  0
   -2.3033   -0.8814   -0.0088 C   0  0  0  0  0  0  0  0  0  0  0  0
   -3.6038   -1.3918    0.0108 C   0  0  0  0  0  0  0  0  0  0  0  0
   -4.6217   -0.5653   -0.4451 C   0  0  0  0  0  0  0  0  0  0  0  0
   -5.9559   -0.8359   -0.5223 O   0  0  0  0  0  0  0  0  0  0  0  0
   -6.4843    0.3127   -1.0355 C   0  0  0  0  0  0  0  0  0  0  0  0
   -5.6209    1.2740   -1.2877 N   0  0  0  0  0  0  0  0  0  0  0  0
   -4.4210    0.7269   -0.9145 C   0  0  0  0  0  0  0  0  0  0  0  0
   -3.1202    1.2365   -0.9336 C   0  0  0  0  0  0  0  0  0  0  0  0
   -2.1029    0.4094   -0.4776 C   0  0  0  0  0  0  0  0  0  0  0  0
   -0.7702    0.6806   -0.4008 O   0  0  0  0  0  0  0  0  0  0  0  0
    1.8377   -1.6457    0.8474 C   0  0  0  0  0  0  0  0  0  0  0  0
    3.2205   -1.7175    1.0628 C   0  0  0  0  0  0  0  0  0  0  0  0
    3.9635   -0.6037    0.7357 C   0  0  0  0  0  0  0  0  0  0  0  0
    6.5069    1.3528    0.3293 H   0  0  0  0  0  0  0  0  0  0  0  0
    1.5944    1.5481   -0.4130 H   0  0  0  0  0  0  0  0  0  0  0  0
   -3.8079   -2.3941    0.3682 H   0  0  0  0  0  0  0  0  0  0  0  0
   -7.5550    0.3239   -1.1852 H   0  0  0  0  0  0  0  0  0  0  0  0
   -2.9172    2.2390   -1.2913 H   0  0  0  0  0  0  0  0  0  0  0  0
    1.2216   -2.5113    1.0964 H   0  0  0  0  0  0  0  0  0  0  0  0
    3.6877   -2.6091    1.4689 H   0  0  0  0  0  0  0  0  0  0  0  0
  1  2  2  0
  2  3  1  0
  3  4  1  0
  4  5  2  0
  4  6  1  0
  6  7  2  0
  7  8  1  0
  8  9  1  0
  9 10  2  0
 10 11  1  0
 11 12  2  0
 12 13  1  0
 13 14  1  0
 14 15  1  0
 15 16  2  0
 16 17  1  0
 17 18  1  0
 18 19  2  0
 19 20  1  0
  8 21  2  0
 21 22  1  0
 22 23  2  0
 23  2  1  0
 23  6  1  0
 20  9  1  0
 19 11  1  0
 17 13  2  0
  3 24  1  0
  7 25  1  0
 12 26  1  0
 15 27  1  0
 18 28  1  0
 21 29  1  0
 22 30  1  0
M  END
