
     RDKit          3D

 27 29  0  0  0  0  0  0  0  0999 V2000
   -1.8152    1.8910    2.6370 O   0  0  0  0  0  0  0  0  0  0  0  0
   -1.5198    1.2750    1.6331 C   0  0  0  0  0  0  0  0  0  0  0  0
   -0.2839    1.1912    1.0618 O   0  0  0  0  0  0  0  0  0  0  0  0
   -0.3072    0.4407   -0.1644 C   0  0  0  0  0  0  0  0  0  0  0  0
    0.6004   -0.6830   -0.1066 N   0  0  0  0  0  0  0  0  0  0  0  0
    1.9512   -0.3487   -0.1172 C   0  0  0  0  0  0  0  0  0  0  0  0
    2.5415    0.3637   -1.1575 C   0  0  0  0  0  0  0  0  0  0  0  0
    3.9085    0.6392   -1.1087 C   0  0  0  0  0  0  0  0  0  0  0  0
    4.6475    0.1842   -0.0271 C   0  0  0  0  0  0  0  0  0  0  0  0
    6.4960    0.5262    0.0908 Br  0  0  0  0  0  0  0  0  0  0  0  0
    3.9908   -0.5345    0.9559 C   0  0  0  0  0  0  0  0  0  0  0  0
    2.6645   -0.8146    0.9249 N   0  0  0  0  0  0  0  0  0  0  0  0
   -1.7092   -0.0361   -0.2476 C   0  0  0  0  0  0  0  0  0  0  0  0
   -2.3349   -0.8455   -1.1829 C   0  0  0  0  0  0  0  0  0  0  0  0
   -3.6974   -1.1172   -1.0189 C   0  0  0  0  0  0  0  0  0  0  0  0
   -4.4117   -0.5801    0.0661 C   0  0  0  0  0  0  0  0  0  0  0  0
   -3.7698    0.2328    1.0013 C   0  0  0  0  0  0  0  0  0  0  0  0
   -2.4216    0.4818    0.8124 C   0  0  0  0  0  0  0  0  0  0  0  0
   -0.1033    1.1226   -0.9984 H   0  0  0  0  0  0  0  0  0  0  0  0
    0.4851   -1.1776    0.7771 H   0  0  0  0  0  0  0  0  0  0  0  0
    1.9602    0.6887   -2.0129 H   0  0  0  0  0  0  0  0  0  0  0  0
    4.3784    1.1952   -1.9144 H   0  0  0  0  0  0  0  0  0  0  0  0
    4.5164   -0.9226    1.8235 H   0  0  0  0  0  0  0  0  0  0  0  0
   -1.7817   -1.2667   -2.0178 H   0  0  0  0  0  0  0  0  0  0  0  0
   -4.2110   -1.7541   -1.7368 H   0  0  0  0  0  0  0  0  0  0  0  0
   -5.4705   -0.8040    0.1786 H   0  0  0  0  0  0  0  0  0  0  0  0
   -4.3032    0.6524    1.8486 H   0  0  0  0  0  0  0  0  0  0  0  0
  1  2  2  0
  2  3  1  0
  3  4  1  0
  4  5  1  0
  5  6  1  0
  6  7  2  0
  7  8  1  0
  8  9  2  0
  9 10  1  0
  9 11  1  0
 11 12  2  0
  4 13  1  0
 13 14  2  0
 14 15  1  0
 15 16  2  0
 16 17  1  0
 17 18  2  0
 18  2  1  0
 12  6  1  0
 18 13  1  0
  4 19  1  0
  5 20  1  0
  7 21  1  0
  8 22  1  0
 11 23  1  0
 14 24  1  0
 15 25  1  0
 16 26  1  0
 17 27  1  0
M  END
