
     RDKit          3D

 43 46  0  0  0  0  0  0  0  0999 V2000
    1.7510    0.6188   -3.0617 O   0  0  0  0  0  0  0  0  0  0  0  0
    1.2280    0.4398   -1.9667 C   0  0  0  0  0  0  0  0  0  0  0  0
   -0.1607    0.4664   -1.8420 O   0  0  0  0  0  0  0  0  0  0  0  0
   -0.7983    0.3559   -0.5928 C   0  0  0  0  0  0  0  0  0  0  0  0
   -0.0570    0.1854    0.5623 C   0  0  0  0  0  0  0  0  0  0  0  0
   -0.7375    0.0832    1.7680 C   0  0  0  0  0  0  0  0  0  0  0  0
   -2.1414    0.1480    1.7916 C   0  0  0  0  0  0  0  0  0  0  0  0
   -2.9153    0.3236    0.6278 C   0  0  0  0  0  0  0  0  0  0  0  0
   -4.3042    0.3912    0.6659 N   0  0  0  0  0  0  0  0  0  0  0  0
   -5.0802   -0.0766    1.8233 C   0  0  0  0  0  0  0  0  0  0  0  0
   -5.0671   -1.5955    1.9321 C   0  0  0  0  0  0  0  0  0  0  0  0
   -5.0716    0.9576   -0.4531 C   0  0  0  0  0  0  0  0  0  0  0  0
   -5.5694   -0.1301   -1.3925 C   0  0  0  0  0  0  0  0  0  0  0  0
   -2.1945    0.4272   -0.5730 C   0  0  0  0  0  0  0  0  0  0  0  0
    1.3896    0.1117    0.4689 C   0  0  0  0  0  0  0  0  0  0  0  0
    2.0070    0.2014   -0.7216 C   0  0  0  0  0  0  0  0  0  0  0  0
    3.4345    0.1148   -0.7453 C   0  0  0  0  0  0  0  0  0  0  0  0
    4.2460    0.6603    0.1458 N   0  0  0  0  0  0  0  0  0  0  0  0
    5.5685    0.3643   -0.1365 C   0  0  0  0  0  0  0  0  0  0  0  0
    6.6882    0.8106    0.5936 C   0  0  0  0  0  0  0  0  0  0  0  0
    7.9742    0.4290    0.1974 C   0  0  0  0  0  0  0  0  0  0  0  0
    8.1547   -0.3895   -0.9129 C   0  0  0  0  0  0  0  0  0  0  0  0
    7.0592   -0.8454   -1.6522 C   0  0  0  0  0  0  0  0  0  0  0  0
    5.7727   -0.4565   -1.2429 C   0  0  0  0  0  0  0  0  0  0  0  0
    4.2496   -0.8601   -1.9244 S   0  0  0  0  0  0  0  0  0  0  0  0
   -0.2001   -0.0434    2.7040 H   0  0  0  0  0  0  0  0  0  0  0  0
   -2.6157    0.0722    2.7658 H   0  0  0  0  0  0  0  0  0  0  0  0
   -6.1261    0.2415    1.7279 H   0  0  0  0  0  0  0  0  0  0  0  0
   -4.7271    0.3853    2.7521 H   0  0  0  0  0  0  0  0  0  0  0  0
   -4.0601   -1.9833    2.1085 H   0  0  0  0  0  0  0  0  0  0  0  0
   -5.4485   -2.0613    1.0174 H   0  0  0  0  0  0  0  0  0  0  0  0
   -5.7001   -1.9181    2.7651 H   0  0  0  0  0  0  0  0  0  0  0  0
   -5.9360    1.5115   -0.0643 H   0  0  0  0  0  0  0  0  0  0  0  0
   -4.4907    1.7060   -1.0054 H   0  0  0  0  0  0  0  0  0  0  0  0
   -4.7494   -0.7466   -1.7708 H   0  0  0  0  0  0  0  0  0  0  0  0
   -6.0844    0.3159   -2.2489 H   0  0  0  0  0  0  0  0  0  0  0  0
   -6.2784   -0.7923   -0.8859 H   0  0  0  0  0  0  0  0  0  0  0  0
   -2.7003    0.5449   -1.5253 H   0  0  0  0  0  0  0  0  0  0  0  0
    1.9512   -0.0318    1.3881 H   0  0  0  0  0  0  0  0  0  0  0  0
    6.5425    1.4505    1.4583 H   0  0  0  0  0  0  0  0  0  0  0  0
    8.8363    0.7774    0.7612 H   0  0  0  0  0  0  0  0  0  0  0  0
    9.1604   -0.6793   -1.2114 H   0  0  0  0  0  0  0  0  0  0  0  0
    7.2004   -1.4845   -2.5187 H   0  0  0  0  0  0  0  0  0  0  0  0
  1  2  2  0
  2  3  1  0
  3  4  1  0
  4  5  2  0
  5  6  1  0
  6  7  2  0
  7  8  1  0
  8  9  1  0
  9 10  1  0
 10 11  1  0
  9 12  1  0
 12 13  1  0
  8 14  2  0
  5 15  1  0
 15 16  2  0
 16 17  1  0
 17 18  2  0
 18 19  1  0
 19 20  2  0
 20 21  1  0
 21 22  2  0
 22 23  1  0
 23 24  2  0
 24 25  1  0
 16  2  1  0
 14  4  1  0
 25 17  1  0
 24 19  1  0
  6 26  1  0
  7 27  1  0
 10 28  1  0
 10 29  1  0
 11 30  1  0
 11 31  1  0
 11 32  1  0
 12 33  1  0
 12 34  1  0
 13 35  1  0
 13 36  1  0
 13 37  1  0
 14 38  1  0
 15 39  1  0
 20 40  1  0
 21 41  1  0
 22 42  1  0
 23 43  1  0
M  END
