
     RDKit          3D

 27 28  0  0  0  0  0  0  0  0999 V2000
   -1.5146    3.7310   -0.3252 O   0  0  0  0  0  0  0  0  0  0  0  0
   -1.1017    2.5813   -0.2285 C   0  0  0  0  0  0  0  0  0  0  0  0
    0.2447    2.2758   -0.2608 O   0  0  0  0  0  0  0  0  0  0  0  0
    0.6904    0.9499   -0.1023 C   0  0  0  0  0  0  0  0  0  0  0  0
   -0.2069   -0.1074    0.0653 C   0  0  0  0  0  0  0  0  0  0  0  0
    0.3405   -1.3845    0.2366 C   0  0  0  0  0  0  0  0  0  0  0  0
    1.7289   -1.5777    0.2273 C   0  0  0  0  0  0  0  0  0  0  0  0
    2.6041   -0.5047    0.0500 C   0  0  0  0  0  0  0  0  0  0  0  0
    3.9294   -0.8374    0.0616 O   0  0  0  0  0  0  0  0  0  0  0  0
    4.8598    0.2230   -0.1233 C   0  0  0  0  0  0  0  0  0  0  0  0
    2.0787    0.7716   -0.1148 C   0  0  0  0  0  0  0  0  0  0  0  0
   -1.6587    0.1711    0.0590 C   0  0  0  0  0  0  0  0  0  0  0  0
   -2.6134   -0.9958    0.2163 C   0  0  0  0  0  0  0  0  0  0  0  0
   -4.0958   -0.7428   -0.0089 C   0  0  0  0  0  0  0  0  0  0  0  0
   -4.8679   -1.5523    0.7463 O   0  0  0  0  0  0  0  0  0  0  0  0
   -4.6115    0.0295   -0.7986 O   0  0  0  0  0  0  0  0  0  0  0  0
   -2.0356    1.4543   -0.0704 C   0  0  0  0  0  0  0  0  0  0  0  0
   -0.2851   -2.2603    0.3843 H   0  0  0  0  0  0  0  0  0  0  0  0
    2.1317   -2.5798    0.3610 H   0  0  0  0  0  0  0  0  0  0  0  0
    4.7868    0.9571    0.6859 H   0  0  0  0  0  0  0  0  0  0  0  0
    4.7283    0.6973   -1.1015 H   0  0  0  0  0  0  0  0  0  0  0  0
    5.8659   -0.2064   -0.0937 H   0  0  0  0  0  0  0  0  0  0  0  0
    2.7096    1.6428   -0.2510 H   0  0  0  0  0  0  0  0  0  0  0  0
   -2.3528   -1.7895   -0.4949 H   0  0  0  0  0  0  0  0  0  0  0  0
   -2.4957   -1.3930    1.2329 H   0  0  0  0  0  0  0  0  0  0  0  0
   -5.7853   -1.3193    0.4883 H   0  0  0  0  0  0  0  0  0  0  0  0
   -3.0740    1.7663   -0.0716 H   0  0  0  0  0  0  0  0  0  0  0  0
  1  2  2  0
  2  3  1  0
  3  4  1  0
  4  5  2  0
  5  6  1  0
  6  7  2  0
  7  8  1  0
  8  9  1  0
  9 10  1  0
  8 11  2  0
  5 12  1  0
 12 13  1  0
 13 14  1  0
 14 15  1  0
 14 16  2  0
 12 17  2  0
 17  2  1  0
 11  4  1  0
  6 18  1  0
  7 19  1  0
 10 20  1  0
 10 21  1  0
 10 22  1  0
 11 23  1  0
 13 24  1  0
 13 25  1  0
 15 26  1  0
 17 27  1  0
M  END
