
     RDKit          3D

 45 51  0  0  0  0  0  0  0  0999 V2000
    4.8657   -1.8772    0.9291 Si  0  0  0  0  0  4  0  0  0  0  0  0
    3.1415   -1.1546    1.0892 C   0  0  0  0  0  0  0  0  0  0  0  0
    1.9188   -1.3634    1.7147 C   0  0  0  0  0  0  0  0  0  0  0  0
    1.1003   -0.3184    1.2910 C   0  0  0  0  0  0  0  0  0  0  0  0
    1.8327    0.5091    0.4515 N   0  0  0  0  0  0  0  0  0  0  0  0
    3.0806   -0.0146    0.3189 C   0  0  0  0  0  0  0  0  0  0  0  0
    4.2412    0.4118   -0.4282 C   0  0  0  0  0  0  0  0  0  0  0  0
    4.2158    1.5124   -1.1901 N   0  0  0  0  0  0  0  0  0  0  0  0
    5.3841    1.7711   -1.8241 C   0  0  0  0  0  0  0  0  0  0  0  0
    6.5385    0.9857   -1.7224 C   0  0  0  0  0  0  0  0  0  0  0  0
    6.5241   -0.1555   -0.9184 C   0  0  0  0  0  0  0  0  0  0  0  0
    5.3463   -0.4481   -0.2562 C   0  0  0  0  0  0  0  0  0  0  0  0
   -0.2599   -0.0237    1.6399 C   0  0  0  0  0  0  0  0  0  0  0  0
   -0.5376    0.4949    3.2595 S   0  0  0  0  0  0  0  0  0  0  0  0
   -2.1796    0.8229    2.9539 C   0  0  0  0  0  0  0  0  0  0  0  0
   -2.5378    0.5190    1.6606 C   0  0  0  0  0  0  0  0  0  0  0  0
   -1.4329   -0.0310    0.8935 C   0  0  0  0  0  0  0  0  0  0  0  0
   -1.5824   -0.4739   -0.4669 C   0  0  0  0  0  0  0  0  0  0  0  0
   -0.5856   -1.1019   -1.2661 C   0  0  0  0  0  0  0  0  0  0  0  0
   -0.8329   -1.4700   -2.5830 C   0  0  0  0  0  0  0  0  0  0  0  0
   -2.0797   -1.2337   -3.1276 C   0  0  0  0  0  0  0  0  0  0  0  0
   -3.0842   -0.6470   -2.3488 C   0  0  0  0  0  0  0  0  0  0  0  0
   -2.9047   -0.2526   -0.9974 C   0  0  0  0  0  0  0  0  0  0  0  0
   -4.0063    0.3298   -0.2074 C   0  0  0  0  0  0  0  0  0  0  0  0
   -5.3097    0.5395   -0.7313 C   0  0  0  0  0  0  0  0  0  0  0  0
   -6.3689    1.0798    0.0128 C   0  0  0  0  0  0  0  0  0  0  0  0
   -6.1795    1.4426    1.3348 C   0  0  0  0  0  0  0  0  0  0  0  0
   -4.9295    1.2676    1.9122 C   0  0  0  0  0  0  0  0  0  0  0  0
   -3.8518    0.7215    1.1606 C   0  0  0  0  0  0  0  0  0  0  0  0
    4.9121   -3.1867    0.2281 H   0  0  0  0  0  0  0  0  0  0  0  0
    5.6683   -1.8269    2.1786 H   0  0  0  0  0  0  0  0  0  0  0  0
    1.6288   -2.1582    2.3901 H   0  0  0  0  0  0  0  0  0  0  0  0
    1.4978    1.3523    0.0028 H   0  0  0  0  0  0  0  0  0  0  0  0
    5.3792    2.6627   -2.4459 H   0  0  0  0  0  0  0  0  0  0  0  0
    7.4346    1.2671   -2.2665 H   0  0  0  0  0  0  0  0  0  0  0  0
    7.4068   -0.7792   -0.8243 H   0  0  0  0  0  0  0  0  0  0  0  0
   -2.7794    1.2238    3.7572 H   0  0  0  0  0  0  0  0  0  0  0  0
    0.3934   -1.3412   -0.8698 H   0  0  0  0  0  0  0  0  0  0  0  0
   -0.0534   -1.9439   -3.1730 H   0  0  0  0  0  0  0  0  0  0  0  0
   -2.2873   -1.5153   -4.1568 H   0  0  0  0  0  0  0  0  0  0  0  0
   -4.0387   -0.5115   -2.8487 H   0  0  0  0  0  0  0  0  0  0  0  0
   -5.5467    0.2802   -1.7591 H   0  0  0  0  0  0  0  0  0  0  0  0
   -7.3424    1.2118   -0.4531 H   0  0  0  0  0  0  0  0  0  0  0  0
   -6.9983    1.8608    1.9133 H   0  0  0  0  0  0  0  0  0  0  0  0
   -4.8011    1.5622    2.9491 H   0  0  0  0  0  0  0  0  0  0  0  0
  1  2  1  0
  2  3  1  0
  3  4  2  0
  4  5  1  0
  5  6  1  0
  6  7  1  0
  7  8  2  0
  8  9  1  0
  9 10  2  0
 10 11  1  0
 11 12  2  0
  4 13  1  0
 13 14  1  0
 14 15  1  0
 15 16  2  0
 16 17  1  0
 17 18  1  0
 18 19  2  0
 19 20  1  0
 20 21  2  0
 21 22  1  0
 22 23  2  0
 23 24  1  0
 24 25  2  0
 25 26  1  0
 26 27  2  0
 27 28  1  0
 28 29  2  0
 12  1  1  0
 17 13  2  0
 23 18  1  0
 29 24  1  0
  6  2  2  0
 12  7  1  0
 29 16  1  0
  1 30  1  0
  1 31  1  0
  3 32  1  0
  5 33  1  0
  9 34  1  0
 10 35  1  0
 11 36  1  0
 15 37  1  0
 19 38  1  0
 20 39  1  0
 21 40  1  0
 22 41  1  0
 25 42  1  0
 26 43  1  0
 27 44  1  0
 28 45  1  0
M  END
