
     RDKit          3D

 34 37  0  0  0  0  0  0  0  0999 V2000
   -1.6011    4.2806   -0.6844 O   0  0  0  0  0  0  0  0  0  0  0  0
   -2.3895    3.3581   -0.5360 C   0  0  0  0  0  0  0  0  0  0  0  0
   -2.0243    1.9289   -0.3073 C   0  0  0  0  0  0  0  0  0  0  0  0
   -0.6967    1.4337   -0.2292 C   0  0  0  0  0  0  0  0  0  0  0  0
    0.4566    2.2338   -0.3586 C   0  0  0  0  0  0  0  0  0  0  0  0
    1.7453    1.7029   -0.2748 C   0  0  0  0  0  0  0  0  0  0  0  0
   -0.5036    0.0420   -0.0063 C   0  0  0  0  0  0  0  0  0  0  0  0
    0.8212   -0.4955    0.0787 C   0  0  0  0  0  0  0  0  0  0  0  0
    1.9617    0.3373   -0.0560 C   0  0  0  0  0  0  0  0  0  0  0  0
    3.2639   -0.2237    0.0327 C   0  0  0  0  0  0  0  0  0  0  0  0
    4.5074    0.6171   -0.1033 C   0  0  0  0  0  0  0  0  0  0  0  0
    3.4128   -1.5978    0.2529 C   0  0  0  0  0  0  0  0  0  0  0  0
    2.2969   -2.4164    0.3853 C   0  0  0  0  0  0  0  0  0  0  0  0
    1.0077   -1.8813    0.3007 C   0  0  0  0  0  0  0  0  0  0  0  0
   -0.1002   -2.7151    0.4355 C   0  0  0  0  0  0  0  0  0  0  0  0
   -1.3902   -2.1967    0.3536 C   0  0  0  0  0  0  0  0  0  0  0  0
   -1.6251   -0.8270    0.1342 C   0  0  0  0  0  0  0  0  0  0  0  0
   -2.9364   -0.3037    0.0515 C   0  0  0  0  0  0  0  0  0  0  0  0
   -4.1608   -1.1731    0.1920 C   0  0  0  0  0  0  0  0  0  0  0  0
   -3.1183    1.0652   -0.1678 C   0  0  0  0  0  0  0  0  0  0  0  0
   -3.4728    3.5668   -0.5687 H   0  0  0  0  0  0  0  0  0  0  0  0
    0.3866    3.3049   -0.5303 H   0  0  0  0  0  0  0  0  0  0  0  0
    2.5786    2.3928   -0.3862 H   0  0  0  0  0  0  0  0  0  0  0  0
    5.4158    0.0126   -0.0070 H   0  0  0  0  0  0  0  0  0  0  0  0
    4.5389    1.3800    0.6812 H   0  0  0  0  0  0  0  0  0  0  0  0
    4.5374    1.0961   -1.0873 H   0  0  0  0  0  0  0  0  0  0  0  0
    4.4031   -2.0425    0.3233 H   0  0  0  0  0  0  0  0  0  0  0  0
    2.4459   -3.4804    0.5558 H   0  0  0  0  0  0  0  0  0  0  0  0
    0.0256   -3.7821    0.6064 H   0  0  0  0  0  0  0  0  0  0  0  0
   -2.2152   -2.8962    0.4665 H   0  0  0  0  0  0  0  0  0  0  0  0
   -4.1785   -1.9360   -0.5930 H   0  0  0  0  0  0  0  0  0  0  0  0
   -4.1768   -1.6525    1.1761 H   0  0  0  0  0  0  0  0  0  0  0  0
   -5.0837   -0.5903    0.0995 H   0  0  0  0  0  0  0  0  0  0  0  0
   -4.1320    1.4577   -0.2297 H   0  0  0  0  0  0  0  0  0  0  0  0
  1  2  2  0
  2  3  1  0
  3  4  2  0
  4  5  1  0
  5  6  2  0
  4  7  1  0
  7  8  2  0
  8  9  1  0
  9 10  2  0
 10 11  1  0
 10 12  1  0
 12 13  2  0
 13 14  1  0
 14 15  2  0
 15 16  1  0
 16 17  2  0
 17 18  1  0
 18 19  1  0
 18 20  2  0
 20  3  1  0
  9  6  1  0
 17  7  1  0
 14  8  1  0
  2 21  1  0
  5 22  1  0
  6 23  1  0
 11 24  1  0
 11 25  1  0
 11 26  1  0
 12 27  1  0
 13 28  1  0
 15 29  1  0
 16 30  1  0
 19 31  1  0
 19 32  1  0
 19 33  1  0
 20 34  1  0
M  END
