
     RDKit          3D

 35 37  0  0  0  0  0  0  0  0999 V2000
   -1.4785   -0.4090    3.5283 O   0  0  0  0  0  0  0  0  0  0  0  0
   -0.6648   -0.1062    2.6629 C   0  0  0  0  0  0  0  0  0  0  0  0
   -1.0036   -0.0286    1.2189 C   0  0  0  0  0  0  0  0  0  0  0  0
    0.0130   -0.0984    0.2166 C   0  0  0  0  0  0  0  0  0  0  0  0
    1.4026   -0.2675    0.4723 C   0  0  0  0  0  0  0  0  0  0  0  0
    2.3832   -0.3374   -0.5373 C   0  0  0  0  0  0  0  0  0  0  0  0
    3.7338   -0.4992   -0.1806 N   0  0  0  0  0  0  0  0  0  0  0  0
    4.7480   -0.1686   -1.1818 C   0  0  0  0  0  0  0  0  0  0  0  0
    4.0010   -1.7424    0.5531 C   0  0  0  0  0  0  0  0  0  0  0  0
    1.9446   -0.2142   -1.8558 C   0  0  0  0  0  0  0  0  0  0  0  0
    0.5884   -0.0626   -2.1572 C   0  0  0  0  0  0  0  0  0  0  0  0
   -0.3796   -0.0100   -1.1477 C   0  0  0  0  0  0  0  0  0  0  0  0
   -1.7307    0.1246   -1.5017 C   0  0  0  0  0  0  0  0  0  0  0  0
   -2.6906    0.1896   -0.5091 C   0  0  0  0  0  0  0  0  0  0  0  0
   -2.3389    0.1209    0.8400 C   0  0  0  0  0  0  0  0  0  0  0  0
   -3.5720    0.1957    1.6948 C   0  0  0  0  0  0  0  0  0  0  0  0
   -4.6046    0.7565    0.7074 C   0  0  0  0  0  0  0  0  0  0  0  0
   -4.1736    0.2886   -0.6849 C   0  0  0  0  0  0  0  0  0  0  0  0
    0.3711    0.1235    2.9503 H   0  0  0  0  0  0  0  0  0  0  0  0
    1.7594   -0.3282    1.4961 H   0  0  0  0  0  0  0  0  0  0  0  0
    4.7799   -0.9136   -1.9846 H   0  0  0  0  0  0  0  0  0  0  0  0
    5.7383   -0.1390   -0.7134 H   0  0  0  0  0  0  0  0  0  0  0  0
    4.5745    0.8249   -1.6106 H   0  0  0  0  0  0  0  0  0  0  0  0
    3.7719   -2.6186   -0.0644 H   0  0  0  0  0  0  0  0  0  0  0  0
    3.4299   -1.8059    1.4848 H   0  0  0  0  0  0  0  0  0  0  0  0
    5.0589   -1.7960    0.8347 H   0  0  0  0  0  0  0  0  0  0  0  0
    2.6418   -0.2569   -2.6868 H   0  0  0  0  0  0  0  0  0  0  0  0
    0.2980    0.0113   -3.2036 H   0  0  0  0  0  0  0  0  0  0  0  0
   -2.0331    0.1761   -2.5447 H   0  0  0  0  0  0  0  0  0  0  0  0
   -3.4601    0.8708    2.5476 H   0  0  0  0  0  0  0  0  0  0  0  0
   -3.8566   -0.8052    2.0352 H   0  0  0  0  0  0  0  0  0  0  0  0
   -4.5762    1.8546    0.7430 H   0  0  0  0  0  0  0  0  0  0  0  0
   -5.6268    0.4534    0.9541 H   0  0  0  0  0  0  0  0  0  0  0  0
   -4.4578    1.0111   -1.4552 H   0  0  0  0  0  0  0  0  0  0  0  0
   -4.5912   -0.6956   -0.9206 H   0  0  0  0  0  0  0  0  0  0  0  0
  1  2  2  0
  2  3  1  0
  3  4  2  0
  4  5  1  0
  5  6  2  0
  6  7  1  0
  7  8  1  0
  7  9  1  0
  6 10  1  0
 10 11  2  0
 11 12  1  0
 12 13  2  0
 13 14  1  0
 14 15  2  0
 15 16  1  0
 16 17  1  0
 17 18  1  0
 15  3  1  0
 12  4  1  0
 18 14  1  0
  2 19  1  0
  5 20  1  0
  8 21  1  0
  8 22  1  0
  8 23  1  0
  9 24  1  0
  9 25  1  0
  9 26  1  0
 10 27  1  0
 11 28  1  0
 13 29  1  0
 16 30  1  0
 16 31  1  0
 17 32  1  0
 17 33  1  0
 18 34  1  0
 18 35  1  0
M  END
