
     RDKit          3D

 34 37  0  0  0  0  0  0  0  0999 V2000
    4.2724   -2.4061   -3.1510 O   0  0  0  0  0  0  0  0  0  0  0  0
    3.5444   -1.4617   -2.8553 C   0  0  0  0  0  0  0  0  0  0  0  0
    2.7162   -1.3964   -1.6824 C   0  0  0  0  0  0  0  0  0  0  0  0
    2.5212   -2.2827   -0.6456 C   0  0  0  0  0  0  0  0  0  0  0  0
    1.5904   -1.6737    0.2297 C   0  0  0  0  0  0  0  0  0  0  0  0
    1.2503   -0.4492   -0.3221 C   0  0  0  0  0  0  0  0  0  0  0  0
    1.9544   -0.2819   -1.4860 O   0  0  0  0  0  0  0  0  0  0  0  0
    0.3641    0.5493    0.1910 C   0  0  0  0  0  0  0  0  0  0  0  0
    0.6235    1.8767    0.4439 C   0  0  0  0  0  0  0  0  0  0  0  0
    1.7999    2.5655    0.1427 C   0  0  0  0  0  0  0  0  0  0  0  0
    1.7475    3.9019    0.5883 C   0  0  0  0  0  0  0  0  0  0  0  0
    0.6302    4.4651    1.2762 C   0  0  0  0  0  0  0  0  0  0  0  0
   -0.5392    3.7373    1.5846 C   0  0  0  0  0  0  0  0  0  0  0  0
   -0.5135    2.4030    1.1445 C   0  0  0  0  0  0  0  0  0  0  0  0
   -1.4294    1.4404    1.2961 N   0  0  0  0  0  0  0  0  0  0  0  0
   -0.9542    0.3596    0.6059 N   0  0  0  0  0  0  0  0  0  0  0  0
   -1.8370   -0.7469    0.3921 C   0  0  0  0  0  0  0  0  0  0  0  0
   -1.6255   -1.6833   -0.6280 C   0  0  0  0  0  0  0  0  0  0  0  0
   -2.5163   -2.7474   -0.8047 C   0  0  0  0  0  0  0  0  0  0  0  0
   -3.6297   -2.8777    0.0223 C   0  0  0  0  0  0  0  0  0  0  0  0
   -3.8650   -1.9371    1.0212 C   0  0  0  0  0  0  0  0  0  0  0  0
   -2.9793   -0.8721    1.2016 C   0  0  0  0  0  0  0  0  0  0  0  0
    3.4922   -0.5772   -3.5128 H   0  0  0  0  0  0  0  0  0  0  0  0
    3.0019   -3.2462   -0.5385 H   0  0  0  0  0  0  0  0  0  0  0  0
    1.2101   -2.0780    1.1588 H   0  0  0  0  0  0  0  0  0  0  0  0
    2.6580    2.1508   -0.3684 H   0  0  0  0  0  0  0  0  0  0  0  0
    2.6106    4.5427    0.4027 H   0  0  0  0  0  0  0  0  0  0  0  0
    0.6867    5.5093    1.5847 H   0  0  0  0  0  0  0  0  0  0  0  0
   -1.3791    4.1618    2.1166 H   0  0  0  0  0  0  0  0  0  0  0  0
   -0.8087   -1.5955   -1.3367 H   0  0  0  0  0  0  0  0  0  0  0  0
   -2.3473   -3.4682   -1.6013 H   0  0  0  0  0  0  0  0  0  0  0  0
   -4.3214   -3.7039   -0.1209 H   0  0  0  0  0  0  0  0  0  0  0  0
   -4.7399   -2.0274    1.6602 H   0  0  0  0  0  0  0  0  0  0  0  0
   -3.1883   -0.1509    1.9904 H   0  0  0  0  0  0  0  0  0  0  0  0
  1  2  2  0
  2  3  1  0
  3  4  2  0
  4  5  1  0
  5  6  2  0
  6  7  1  0
  6  8  1  0
  8  9  2  0
  9 10  1  0
 10 11  2  0
 11 12  1  0
 12 13  2  0
  9 14  1  0
 14 15  2  0
 15 16  1  0
 16 17  1  0
 17 18  2  0
 18 19  1  0
 19 20  2  0
 20 21  1  0
 21 22  2  0
  7  3  1  0
 16  8  1  0
 14 13  1  0
 22 17  1  0
  2 23  1  0
  4 24  1  0
  5 25  1  0
 10 26  1  0
 11 27  1  0
 12 28  1  0
 13 29  1  0
 18 30  1  0
 19 31  1  0
 20 32  1  0
 21 33  1  0
 22 34  1  0
M  END
