
     RDKit          3D

 40 46  0  0  0  0  0  0  0  0999 V2000
   -0.4429   -1.3360   -1.3855 Si  0  0  0  0  0  4  0  0  0  0  0  0
    1.1890   -0.5989   -0.8111 C   0  0  0  0  0  0  0  0  0  0  0  0
    2.5592   -0.6755   -1.0178 C   0  0  0  0  0  0  0  0  0  0  0  0
    3.1545    0.2544   -0.1535 C   0  0  0  0  0  0  0  0  0  0  0  0
    2.1137    0.8673    0.5531 N   0  0  0  0  0  0  0  0  0  0  0  0
    0.9295    0.3444    0.1482 C   0  0  0  0  0  0  0  0  0  0  0  0
   -0.4266    0.5777    0.5089 C   0  0  0  0  0  0  0  0  0  0  0  0
   -1.0976    1.6306    1.6160 S   0  0  0  0  0  0  0  0  0  0  0  0
   -2.7074    1.0821    1.2264 C   0  0  0  0  0  0  0  0  0  0  0  0
   -3.8851    1.5690    1.8212 C   0  0  0  0  0  0  0  0  0  0  0  0
   -5.1136    1.0492    1.4234 C   0  0  0  0  0  0  0  0  0  0  0  0
   -5.1947    0.0577    0.4490 C   0  0  0  0  0  0  0  0  0  0  0  0
   -6.4491   -0.4461    0.0695 C   0  0  0  0  0  0  0  0  0  0  0  0
   -6.5597   -1.4383   -0.9028 C   0  0  0  0  0  0  0  0  0  0  0  0
   -5.4160   -1.9403   -1.5094 C   0  0  0  0  0  0  0  0  0  0  0  0
   -4.1582   -1.4518   -1.1455 C   0  0  0  0  0  0  0  0  0  0  0  0
   -4.0140   -0.4455   -0.1623 C   0  0  0  0  0  0  0  0  0  0  0  0
   -2.7282    0.0780    0.2336 C   0  0  0  0  0  0  0  0  0  0  0  0
   -1.3826   -0.1743   -0.1449 C   0  0  0  0  0  0  0  0  0  0  0  0
    4.5665    0.6023    0.0564 C   0  0  0  0  0  0  0  0  0  0  0  0
    5.0204    1.5687    0.9701 C   0  0  0  0  0  0  0  0  0  0  0  0
    6.3116    1.9613    1.2357 N   0  0  0  0  0  0  0  0  0  0  0  0
    7.3557    1.3926    0.5727 C   0  0  0  0  0  0  0  0  0  0  0  0
    7.0722    0.3997   -0.3836 C   0  0  0  0  0  0  0  0  0  0  0  0
    7.9750   -0.2621   -1.1254 N   0  0  0  0  0  0  0  0  0  0  0  0
    7.1165   -1.3090   -2.0803 S   0  0  0  0  0  0  0  0  0  0  0  0
    5.5709   -0.9698   -1.5967 N   0  0  0  0  0  0  0  0  0  0  0  0
    5.6392   -0.0106   -0.6531 C   0  0  0  0  0  0  0  0  0  0  0  0
   -0.7816   -1.0216   -2.7976 H   0  0  0  0  0  0  0  0  0  0  0  0
   -0.6131   -2.7693   -1.0334 H   0  0  0  0  0  0  0  0  0  0  0  0
    3.0781   -1.3252   -1.7111 H   0  0  0  0  0  0  0  0  0  0  0  0
    2.2081    1.5860    1.2563 H   0  0  0  0  0  0  0  0  0  0  0  0
   -3.8403    2.3424    2.5831 H   0  0  0  0  0  0  0  0  0  0  0  0
   -6.0155    1.4368    1.8935 H   0  0  0  0  0  0  0  0  0  0  0  0
   -7.3584   -0.0670    0.5318 H   0  0  0  0  0  0  0  0  0  0  0  0
   -7.5385   -1.8172   -1.1848 H   0  0  0  0  0  0  0  0  0  0  0  0
   -5.4984   -2.7143   -2.2683 H   0  0  0  0  0  0  0  0  0  0  0  0
   -3.3000   -1.8770   -1.6487 H   0  0  0  0  0  0  0  0  0  0  0  0
    4.3069    2.1181    1.5823 H   0  0  0  0  0  0  0  0  0  0  0  0
    8.3547    1.7313    0.8128 H   0  0  0  0  0  0  0  0  0  0  0  0
  1  2  1  0
  2  3  1  0
  3  4  2  0
  4  5  1  0
  5  6  1  0
  6  7  1  0
  7  8  1  0
  8  9  1  0
  9 10  2  0
 10 11  1  0
 11 12  2  0
 12 13  1  0
 13 14  2  0
 14 15  1  0
 15 16  2  0
 16 17  1  0
 17 18  2  0
 18 19  1  0
  4 20  1  0
 20 21  2  0
 21 22  1  0
 22 23  2  0
 23 24  1  0
 24 25  2  0
 25 26  1  0
 26 27  1  0
 27 28  2  0
 19  1  1  0
 28 20  1  0
  6  2  2  0
 19  7  2  0
 28 24  1  0
 18  9  1  0
 17 12  1  0
  1 29  1  0
  1 30  1  0
  3 31  1  0
  5 32  1  0
 10 33  1  0
 11 34  1  0
 13 35  1  0
 14 36  1  0
 15 37  1  0
 16 38  1  0
 21 39  1  0
 23 40  1  0
M  END
