
     RDKit          3D

 38 39  0  0  0  0  0  0  0  0999 V2000
   -2.7900   -0.0313   -2.1257 O   0  0  0  0  0  0  0  0  0  0  0  0
   -3.5472   -0.0040   -0.9858 C   0  0  0  0  0  0  0  0  0  0  0  0
   -2.9945    0.0646    0.2964 C   0  0  0  0  0  0  0  0  0  0  0  0
   -1.5384    0.1135    0.5280 C   0  0  0  0  0  0  0  0  0  0  0  0
   -0.6935    0.0951   -0.4561 N   0  0  0  0  0  0  0  0  0  0  0  0
    0.6087    0.1506    0.0266 N   0  0  0  0  0  0  0  0  0  0  0  0
    1.4715    0.1336   -0.9392 C   0  0  0  0  0  0  0  0  0  0  0  0
    2.9387    0.1814   -0.7493 C   0  0  0  0  0  0  0  0  0  0  0  0
    3.5768    0.2512    0.4949 C   0  0  0  0  0  0  0  0  0  0  0  0
    2.8531    0.2803    1.6540 O   0  0  0  0  0  0  0  0  0  0  0  0
    4.9760    0.2927    0.5753 C   0  0  0  0  0  0  0  0  0  0  0  0
    5.7468    0.2647   -0.5884 C   0  0  0  0  0  0  0  0  0  0  0  0
    7.1123    0.2993   -0.6522 O   0  0  0  0  0  0  0  0  0  0  0  0
    7.8182    0.3712    0.5801 C   0  0  0  0  0  0  0  0  0  0  0  0
    5.1106    0.1950   -1.8290 C   0  0  0  0  0  0  0  0  0  0  0  0
    3.7169    0.1535   -1.9134 C   0  0  0  0  0  0  0  0  0  0  0  0
   -3.8382    0.0885    1.4111 C   0  0  0  0  0  0  0  0  0  0  0  0
   -5.2277    0.0439    1.2415 C   0  0  0  0  0  0  0  0  0  0  0  0
   -5.7784   -0.0246   -0.0405 C   0  0  0  0  0  0  0  0  0  0  0  0
   -7.1123   -0.0730   -0.3390 O   0  0  0  0  0  0  0  0  0  0  0  0
   -8.0210   -0.0524    0.7542 C   0  0  0  0  0  0  0  0  0  0  0  0
   -4.9300   -0.0482   -1.1513 C   0  0  0  0  0  0  0  0  0  0  0  0
   -1.8476    0.0055   -1.8505 H   0  0  0  0  0  0  0  0  0  0  0  0
   -1.1915    0.1668    1.5764 H   0  0  0  0  0  0  0  0  0  0  0  0
    1.1193    0.0803   -1.9861 H   0  0  0  0  0  0  0  0  0  0  0  0
    3.4452    0.3280    2.4197 H   0  0  0  0  0  0  0  0  0  0  0  0
    5.4469    0.3466    1.5497 H   0  0  0  0  0  0  0  0  0  0  0  0
    7.5752    1.2919    1.1206 H   0  0  0  0  0  0  0  0  0  0  0  0
    8.8882    0.3914    0.3519 H   0  0  0  0  0  0  0  0  0  0  0  0
    7.6255   -0.5127    1.1970 H   0  0  0  0  0  0  0  0  0  0  0  0
    5.7063    0.1729   -2.7391 H   0  0  0  0  0  0  0  0  0  0  0  0
    3.2524    0.0995   -2.8951 H   0  0  0  0  0  0  0  0  0  0  0  0
   -3.4285    0.1416    2.4168 H   0  0  0  0  0  0  0  0  0  0  0  0
   -5.8508    0.0642    2.1298 H   0  0  0  0  0  0  0  0  0  0  0  0
   -7.9315    0.8782    1.3243 H   0  0  0  0  0  0  0  0  0  0  0  0
   -7.8826   -0.9266    1.3989 H   0  0  0  0  0  0  0  0  0  0  0  0
   -9.0356   -0.0967    0.3466 H   0  0  0  0  0  0  0  0  0  0  0  0
   -5.3493   -0.1013   -2.1528 H   0  0  0  0  0  0  0  0  0  0  0  0
  1  2  1  0
  2  3  2  0
  3  4  1  0
  4  5  2  0
  5  6  1  0
  6  7  2  0
  7  8  1  0
  8  9  2  0
  9 10  1  0
  9 11  1  0
 11 12  2  0
 12 13  1  0
 13 14  1  0
 12 15  1  0
 15 16  2  0
  3 17  1  0
 17 18  2  0
 18 19  1  0
 19 20  1  0
 20 21  1  0
 19 22  2  0
 22  2  1  0
 16  8  1  0
  1 23  1  0
  4 24  1  0
  7 25  1  0
 10 26  1  0
 11 27  1  0
 14 28  1  0
 14 29  1  0
 14 30  1  0
 15 31  1  0
 16 32  1  0
 17 33  1  0
 18 34  1  0
 21 35  1  0
 21 36  1  0
 21 37  1  0
 22 38  1  0
M  END
