
     RDKit          3D

 32 36  0  0  0  0  0  0  0  0999 V2000
   -1.1627    2.2381    0.6710 Si  0  0  0  0  0  4  0  0  0  0  0  0
    0.0708    0.8276    0.1624 C   0  0  0  0  0  0  0  0  0  0  0  0
    1.4604    0.8641    0.1125 C   0  0  0  0  0  0  0  0  0  0  0  0
    2.1516   -0.2911   -0.2840 C   0  0  0  0  0  0  0  0  0  0  0  0
    1.4263   -1.4541   -0.6307 C   0  0  0  0  0  0  0  0  0  0  0  0
    0.0256   -1.4905   -0.5827 C   0  0  0  0  0  0  0  0  0  0  0  0
   -0.6485   -0.3510   -0.1849 C   0  0  0  0  0  0  0  0  0  0  0  0
   -2.0866   -0.1612   -0.0622 C   0  0  0  0  0  0  0  0  0  0  0  0
   -3.1386   -0.9957   -0.2882 N   0  0  0  0  0  0  0  0  0  0  0  0
   -4.2958   -0.2864   -0.0095 C   0  0  0  0  0  0  0  0  0  0  0  0
   -5.6960   -0.5267   -0.0279 C   0  0  0  0  0  0  0  0  0  0  0  0
   -6.3704    0.6095    0.3680 C   0  0  0  0  0  0  0  0  0  0  0  0
   -5.3531    1.9435    0.7561 S   0  0  0  0  0  0  0  0  0  0  0  0
   -3.9627    0.9872    0.3880 C   0  0  0  0  0  0  0  0  0  0  0  0
   -2.5669    1.0634    0.3532 C   0  0  0  0  0  0  0  0  0  0  0  0
    3.6148   -0.2808   -0.3411 C   0  0  0  0  0  0  0  0  0  0  0  0
    4.4952    0.7172   -0.7276 C   0  0  0  0  0  0  0  0  0  0  0  0
    5.8149    0.2251   -0.5850 C   0  0  0  0  0  0  0  0  0  0  0  0
    5.7191   -1.0588   -0.1035 C   0  0  0  0  0  0  0  0  0  0  0  0
    4.3895   -1.3542    0.0449 N   0  0  0  0  0  0  0  0  0  0  0  0
   -1.0730    3.3756   -0.2814 H   0  0  0  0  0  0  0  0  0  0  0  0
   -0.9700    2.6066    2.0979 H   0  0  0  0  0  0  0  0  0  0  0  0
    2.0004    1.7659    0.3867 H   0  0  0  0  0  0  0  0  0  0  0  0
    1.9527   -2.3446   -0.9669 H   0  0  0  0  0  0  0  0  0  0  0  0
   -0.5052   -2.3941   -0.8601 H   0  0  0  0  0  0  0  0  0  0  0  0
   -3.1266   -1.9575   -0.6011 H   0  0  0  0  0  0  0  0  0  0  0  0
   -6.1762   -1.4549   -0.3078 H   0  0  0  0  0  0  0  0  0  0  0  0
   -7.4410    0.7354    0.4539 H   0  0  0  0  0  0  0  0  0  0  0  0
    4.2141    1.6986   -1.0878 H   0  0  0  0  0  0  0  0  0  0  0  0
    6.7332    0.7531   -0.8071 H   0  0  0  0  0  0  0  0  0  0  0  0
    6.4793   -1.7850    0.1505 H   0  0  0  0  0  0  0  0  0  0  0  0
    4.0254   -2.2245    0.4078 H   0  0  0  0  0  0  0  0  0  0  0  0
  1  2  1  0
  2  3  2  0
  3  4  1  0
  4  5  2  0
  5  6  1  0
  6  7  2  0
  7  8  1  0
  8  9  1  0
  9 10  1  0
 10 11  1  0
 11 12  2  0
 12 13  1  0
 13 14  1  0
 14 15  1  0
  4 16  1  0
 16 17  2  0
 17 18  1  0
 18 19  2  0
 19 20  1  0
 15  1  1  0
 20 16  1  0
  7  2  1  0
 15  8  2  0
 14 10  2  0
  1 21  1  0
  1 22  1  0
  3 23  1  0
  5 24  1  0
  6 25  1  0
  9 26  1  0
 11 27  1  0
 12 28  1  0
 17 29  1  0
 18 30  1  0
 19 31  1  0
 20 32  1  0
M  END
