
     RDKit          3D

 28 30  0  0  0  0  0  0  0  0999 V2000
   -0.4251   -2.6541   -0.8303 O   0  0  0  0  0  0  0  0  0  0  0  0
    0.2329   -1.5025   -0.4373 C   0  0  0  0  0  0  0  0  0  0  0  0
   -0.3795   -0.3477   -0.1156 C   0  0  0  0  0  0  0  0  0  0  0  0
   -1.8478   -0.1741   -0.1386 C   0  0  0  0  0  0  0  0  0  0  0  0
   -2.4066    0.9650   -0.7395 C   0  0  0  0  0  0  0  0  0  0  0  0
   -3.7898    1.1631   -0.7510 C   0  0  0  0  0  0  0  0  0  0  0  0
   -4.6328    0.2278   -0.1556 C   0  0  0  0  0  0  0  0  0  0  0  0
   -4.0940   -0.9035    0.4528 C   0  0  0  0  0  0  0  0  0  0  0  0
   -2.7105   -1.1012    0.4643 C   0  0  0  0  0  0  0  0  0  0  0  0
    0.2953    0.8117    0.2507 O   0  0  0  0  0  0  0  0  0  0  0  0
    1.6644    0.7888    0.3130 C   0  0  0  0  0  0  0  0  0  0  0  0
    2.3045    1.9663    0.6985 C   0  0  0  0  0  0  0  0  0  0  0  0
    3.6985    2.0064    0.7791 C   0  0  0  0  0  0  0  0  0  0  0  0
    4.4521    0.8708    0.4745 C   0  0  0  0  0  0  0  0  0  0  0  0
    3.8130   -0.3080    0.0887 C   0  0  0  0  0  0  0  0  0  0  0  0
    2.4177   -0.3405    0.0108 C   0  0  0  0  0  0  0  0  0  0  0  0
    1.7142   -1.5623   -0.3917 C   0  0  0  0  0  0  0  0  0  0  0  0
    2.2918   -2.6044   -0.6853 O   0  0  0  0  0  0  0  0  0  0  0  0
    0.2891   -3.2998   -1.0189 H   0  0  0  0  0  0  0  0  0  0  0  0
   -1.7658    1.7071   -1.2108 H   0  0  0  0  0  0  0  0  0  0  0  0
   -4.2072    2.0474   -1.2253 H   0  0  0  0  0  0  0  0  0  0  0  0
   -5.7088    0.3801   -0.1651 H   0  0  0  0  0  0  0  0  0  0  0  0
   -4.7486   -1.6349    0.9195 H   0  0  0  0  0  0  0  0  0  0  0  0
   -2.3122   -1.9894    0.9499 H   0  0  0  0  0  0  0  0  0  0  0  0
    1.7207    2.8518    0.9371 H   0  0  0  0  0  0  0  0  0  0  0  0
    4.1980    2.9245    1.0803 H   0  0  0  0  0  0  0  0  0  0  0  0
    5.5374    0.9047    0.5380 H   0  0  0  0  0  0  0  0  0  0  0  0
    4.3989   -1.1932   -0.1489 H   0  0  0  0  0  0  0  0  0  0  0  0
  1  2  1  0
  2  3  2  0
  3  4  1  0
  4  5  2  0
  5  6  1  0
  6  7  2  0
  7  8  1  0
  8  9  2  0
  3 10  1  0
 10 11  1  0
 11 12  2  0
 12 13  1  0
 13 14  2  0
 14 15  1  0
 15 16  2  0
 16 17  1  0
 17 18  2  0
 17  2  1  0
  9  4  1  0
 16 11  1  0
  1 19  1  0
  5 20  1  0
  6 21  1  0
  7 22  1  0
  8 23  1  0
  9 24  1  0
 12 25  1  0
 13 26  1  0
 14 27  1  0
 15 28  1  0
M  END
