
     RDKit          3D

 43 46  0  0  0  0  0  0  0  0999 V2000
    6.1342   -0.8210    1.2579 O   0  0  0  0  0  0  0  0  0  0  0  0
    4.7141   -0.9391    1.2029 C   0  0  0  0  0  0  0  0  0  0  0  0
    4.1510   -0.2719   -0.0656 C   0  0  0  0  0  0  0  0  0  0  0  0
    4.6078   -0.9939   -1.3344 C   0  0  0  0  0  0  0  0  0  0  0  0
    2.6973   -0.1521   -0.0258 N   0  0  0  0  0  0  0  0  0  0  0  0
    2.0266    1.1524   -0.2418 C   0  0  0  0  0  0  0  0  0  0  0  0
    0.6126    0.7292   -0.1766 C   0  0  0  0  0  0  0  0  0  0  0  0
    0.5324   -0.6189    0.0258 C   0  0  0  0  0  0  0  0  0  0  0  0
   -0.7605   -1.0072    0.0814 N   0  0  0  0  0  0  0  0  0  0  0  0
   -1.2835   -2.2821    0.2696 C   0  0  0  0  0  0  0  0  0  0  0  0
   -2.6138   -2.4583    0.2954 C   0  0  0  0  0  0  0  0  0  0  0  0
   -3.4860   -1.3003    0.1257 C   0  0  0  0  0  0  0  0  0  0  0  0
   -4.9887   -1.4134    0.1485 C   0  0  0  0  0  0  0  0  0  0  0  0
   -5.6061   -2.7617    0.4212 C   0  0  0  0  0  0  0  0  0  0  0  0
   -5.7056   -0.4313   -0.0513 O   0  0  0  0  0  0  0  0  0  0  0  0
   -2.9671   -0.0636   -0.0578 C   0  0  0  0  0  0  0  0  0  0  0  0
   -1.5496    0.1477   -0.0912 C   0  0  0  0  0  0  0  0  0  0  0  0
   -0.6955    1.2448   -0.2571 C   0  0  0  0  0  0  0  0  0  0  0  0
   -1.0635    2.7629   -0.4899 C   0  0  0  0  0  0  0  0  0  0  0  0
   -2.3283    3.3043   -0.5800 C   0  0  0  0  0  0  0  0  0  0  0  0
   -2.3111    4.7171   -0.7942 C   0  0  0  0  0  0  0  0  0  0  0  0
   -1.0307    5.2124   -0.8618 C   0  0  0  0  0  0  0  0  0  0  0  0
    0.1347    3.9815   -0.6692 S   0  0  0  0  0  0  0  0  0  0  0  0
    1.8129   -1.2260    0.1162 C   0  0  0  0  0  0  0  0  0  0  0  0
    2.0811   -2.4038    0.2768 O   0  0  0  0  0  0  0  0  0  0  0  0
    6.5030   -1.5465    0.7245 H   0  0  0  0  0  0  0  0  0  0  0  0
    4.3123   -0.4442    2.0937 H   0  0  0  0  0  0  0  0  0  0  0  0
    4.4500   -1.9996    1.2693 H   0  0  0  0  0  0  0  0  0  0  0  0
    4.5563    0.7474   -0.1115 H   0  0  0  0  0  0  0  0  0  0  0  0
    5.6983   -0.9770   -1.4277 H   0  0  0  0  0  0  0  0  0  0  0  0
    4.1887   -0.5126   -2.2249 H   0  0  0  0  0  0  0  0  0  0  0  0
    4.2841   -2.0400   -1.3411 H   0  0  0  0  0  0  0  0  0  0  0  0
    2.3107    1.5386   -1.2240 H   0  0  0  0  0  0  0  0  0  0  0  0
    2.3110    1.8332    0.5642 H   0  0  0  0  0  0  0  0  0  0  0  0
   -0.5773   -3.0962    0.3890 H   0  0  0  0  0  0  0  0  0  0  0  0
   -3.0279   -3.4491    0.4388 H   0  0  0  0  0  0  0  0  0  0  0  0
   -5.3502   -3.4615   -0.3783 H   0  0  0  0  0  0  0  0  0  0  0  0
   -5.2755   -3.1399    1.3920 H   0  0  0  0  0  0  0  0  0  0  0  0
   -6.6955   -2.6605    0.4515 H   0  0  0  0  0  0  0  0  0  0  0  0
   -3.6331    0.7803   -0.1792 H   0  0  0  0  0  0  0  0  0  0  0  0
   -3.2491    2.7493   -0.5026 H   0  0  0  0  0  0  0  0  0  0  0  0
   -3.1970    5.3327   -0.8929 H   0  0  0  0  0  0  0  0  0  0  0  0
   -0.7238    6.2379   -1.0155 H   0  0  0  0  0  0  0  0  0  0  0  0
  1  2  1  0
  2  3  1  0
  3  4  1  0
  3  5  1  0
  5  6  1  0
  6  7  1  0
  7  8  2  0
  8  9  1  0
  9 10  1  0
 10 11  2  0
 11 12  1  0
 12 13  1  0
 13 14  1  0
 13 15  2  0
 12 16  2  0
 16 17  1  0
 17 18  2  0
 18 19  1  0
 19 20  2  0
 20 21  1  0
 21 22  2  0
 22 23  1  0
  8 24  1  0
 24 25  2  0
 24  5  1  0
 18  7  1  0
 17  9  1  0
 23 19  1  0
  1 26  1  0
  2 27  1  0
  2 28  1  0
  3 29  1  0
  4 30  1  0
  4 31  1  0
  4 32  1  0
  6 33  1  0
  6 34  1  0
 10 35  1  0
 11 36  1  0
 14 37  1  0
 14 38  1  0
 14 39  1  0
 16 40  1  0
 20 41  1  0
 21 42  1  0
 22 43  1  0
M  END
