
     RDKit          3D

 42 45  0  0  0  0  0  0  0  0999 V2000
   -6.1117    0.2241    0.9472 O   0  0  0  0  0  0  0  0  0  0  0  0
   -4.8110   -0.2965    0.6776 C   0  0  0  0  0  0  0  0  0  0  0  0
   -3.9327    0.7844    0.0216 C   0  0  0  0  0  0  0  0  0  0  0  0
   -4.3941    1.0784   -1.4066 C   0  0  0  0  0  0  0  0  0  0  0  0
   -2.5115    0.4496    0.0553 N   0  0  0  0  0  0  0  0  0  0  0  0
   -1.4943    1.4751    0.3894 C   0  0  0  0  0  0  0  0  0  0  0  0
   -0.2581    0.7086    0.1328 C   0  0  0  0  0  0  0  0  0  0  0  0
   -0.5650   -0.5412   -0.3242 C   0  0  0  0  0  0  0  0  0  0  0  0
    0.5651   -1.2409   -0.5701 N   0  0  0  0  0  0  0  0  0  0  0  0
    0.7022   -2.5412   -1.0505 C   0  0  0  0  0  0  0  0  0  0  0  0
    1.9290   -3.0579   -1.2184 C   0  0  0  0  0  0  0  0  0  0  0  0
    3.0797   -2.2414   -0.8765 C   0  0  0  0  0  0  0  0  0  0  0  0
    4.3120   -2.8101   -1.1112 O   0  0  0  0  0  0  0  0  0  0  0  0
    4.7311   -3.5905    0.0081 C   0  0  0  0  0  0  0  0  0  0  0  0
    2.9506   -0.9699   -0.4471 C   0  0  0  0  0  0  0  0  0  0  0  0
    1.6524   -0.3979   -0.2491 C   0  0  0  0  0  0  0  0  0  0  0  0
    1.1436    0.8293    0.1921 C   0  0  0  0  0  0  0  0  0  0  0  0
    1.9290    2.1139    0.6663 C   0  0  0  0  0  0  0  0  0  0  0  0
    3.2975    2.2664    0.7369 C   0  0  0  0  0  0  0  0  0  0  0  0
    3.6864    3.5578    1.2086 C   0  0  0  0  0  0  0  0  0  0  0  0
    2.6001    4.3536    1.4847 C   0  0  0  0  0  0  0  0  0  0  0  0
    1.1291    3.5460    1.1764 S   0  0  0  0  0  0  0  0  0  0  0  0
   -1.9668   -0.7497   -0.4176 C   0  0  0  0  0  0  0  0  0  0  0  0
   -2.5584   -1.7380   -0.8153 O   0  0  0  0  0  0  0  0  0  0  0  0
   -6.6346   -0.5122    1.3098 H   0  0  0  0  0  0  0  0  0  0  0  0
   -4.3758   -0.6165    1.6305 H   0  0  0  0  0  0  0  0  0  0  0  0
   -4.9200   -1.1749    0.0338 H   0  0  0  0  0  0  0  0  0  0  0  0
   -4.0544    1.7074    0.6036 H   0  0  0  0  0  0  0  0  0  0  0  0
   -5.4376    1.4088   -1.4237 H   0  0  0  0  0  0  0  0  0  0  0  0
   -4.3077    0.1929   -2.0455 H   0  0  0  0  0  0  0  0  0  0  0  0
   -3.7834    1.8691   -1.8560 H   0  0  0  0  0  0  0  0  0  0  0  0
   -1.6168    1.7646    1.4357 H   0  0  0  0  0  0  0  0  0  0  0  0
   -1.6103    2.3262   -0.2866 H   0  0  0  0  0  0  0  0  0  0  0  0
   -0.2052   -3.0869   -1.2812 H   0  0  0  0  0  0  0  0  0  0  0  0
    2.0810   -4.0573   -1.6086 H   0  0  0  0  0  0  0  0  0  0  0  0
    4.8052   -2.9745    0.9111 H   0  0  0  0  0  0  0  0  0  0  0  0
    4.0543   -4.4347    0.1780 H   0  0  0  0  0  0  0  0  0  0  0  0
    5.7248   -3.9907   -0.2140 H   0  0  0  0  0  0  0  0  0  0  0  0
    3.8460   -0.3969   -0.2566 H   0  0  0  0  0  0  0  0  0  0  0  0
    4.0187    1.5112    0.4709 H   0  0  0  0  0  0  0  0  0  0  0  0
    4.7122    3.8814    1.3361 H   0  0  0  0  0  0  0  0  0  0  0  0
    2.5992    5.3707    1.8523 H   0  0  0  0  0  0  0  0  0  0  0  0
  1  2  1  0
  2  3  1  0
  3  4  1  0
  3  5  1  0
  5  6  1  0
  6  7  1  0
  7  8  2  0
  8  9  1  0
  9 10  1  0
 10 11  2  0
 11 12  1  0
 12 13  1  0
 13 14  1  0
 12 15  2  0
 15 16  1  0
 16 17  2  0
 17 18  1  0
 18 19  2  0
 19 20  1  0
 20 21  2  0
 21 22  1  0
  8 23  1  0
 23 24  2  0
 23  5  1  0
 17  7  1  0
 16  9  1  0
 22 18  1  0
  1 25  1  0
  2 26  1  0
  2 27  1  0
  3 28  1  0
  4 29  1  0
  4 30  1  0
  4 31  1  0
  6 32  1  0
  6 33  1  0
 10 34  1  0
 11 35  1  0
 14 36  1  0
 14 37  1  0
 14 38  1  0
 15 39  1  0
 19 40  1  0
 20 41  1  0
 21 42  1  0
M  END
