
     RDKit          3D

 41 44  0  0  0  0  0  0  0  0999 V2000
    4.8511   -0.0603    0.9764 O   0  0  0  0  0  0  0  0  0  0  0  0
    4.2767    1.1337    0.4483 C   0  0  0  0  0  0  0  0  0  0  0  0
    3.5365    0.8926   -0.8853 C   0  0  0  0  0  0  0  0  0  0  0  0
    3.4310    2.1888   -1.6868 C   0  0  0  0  0  0  0  0  0  0  0  0
    2.2281    0.2655   -0.6616 N   0  0  0  0  0  0  0  0  0  0  0  0
    0.9669    1.0409   -0.5101 C   0  0  0  0  0  0  0  0  0  0  0  0
    0.0461   -0.0411   -0.1151 C   0  0  0  0  0  0  0  0  0  0  0  0
    0.7174   -1.2254    0.0083 C   0  0  0  0  0  0  0  0  0  0  0  0
   -0.1304   -2.2081    0.3952 N   0  0  0  0  0  0  0  0  0  0  0  0
    0.1206   -3.5537    0.6477 C   0  0  0  0  0  0  0  0  0  0  0  0
   -0.8927   -4.3551    1.0138 C   0  0  0  0  0  0  0  0  0  0  0  0
   -2.2282   -3.7928    1.1279 C   0  0  0  0  0  0  0  0  0  0  0  0
   -2.4745   -2.4904    0.8866 C   0  0  0  0  0  0  0  0  0  0  0  0
   -1.4035   -1.6209    0.5103 C   0  0  0  0  0  0  0  0  0  0  0  0
   -1.3024   -0.2621    0.2052 C   0  0  0  0  0  0  0  0  0  0  0  0
   -2.4035    0.6791    0.2244 C   0  0  0  0  0  0  0  0  0  0  0  0
   -3.1151    0.9183    1.4058 C   0  0  0  0  0  0  0  0  0  0  0  0
   -4.1625    1.8414    1.4208 C   0  0  0  0  0  0  0  0  0  0  0  0
   -4.5012    2.5314    0.2574 C   0  0  0  0  0  0  0  0  0  0  0  0
   -3.7933    2.3010   -0.9217 C   0  0  0  0  0  0  0  0  0  0  0  0
   -2.7446    1.3790   -0.9386 C   0  0  0  0  0  0  0  0  0  0  0  0
    2.0974   -1.0789   -0.2809 C   0  0  0  0  0  0  0  0  0  0  0  0
    2.9963   -1.8971   -0.1744 O   0  0  0  0  0  0  0  0  0  0  0  0
    4.3080   -0.8248    0.6928 H   0  0  0  0  0  0  0  0  0  0  0  0
    3.6030    1.5499    1.2048 H   0  0  0  0  0  0  0  0  0  0  0  0
    5.1033    1.8377    0.3084 H   0  0  0  0  0  0  0  0  0  0  0  0
    4.1219    0.1700   -1.4686 H   0  0  0  0  0  0  0  0  0  0  0  0
    4.4265    2.5775   -1.9263 H   0  0  0  0  0  0  0  0  0  0  0  0
    2.9018    2.0214   -2.6311 H   0  0  0  0  0  0  0  0  0  0  0  0
    2.8938    2.9652   -1.1316 H   0  0  0  0  0  0  0  0  0  0  0  0
    0.7019    1.4965   -1.4668 H   0  0  0  0  0  0  0  0  0  0  0  0
    1.0936    1.7874    0.2783 H   0  0  0  0  0  0  0  0  0  0  0  0
    1.1408   -3.9008    0.5356 H   0  0  0  0  0  0  0  0  0  0  0  0
   -0.7437   -5.4090    1.2205 H   0  0  0  0  0  0  0  0  0  0  0  0
   -3.0340   -4.4632    1.4113 H   0  0  0  0  0  0  0  0  0  0  0  0
   -3.4820   -2.0949    0.9686 H   0  0  0  0  0  0  0  0  0  0  0  0
   -2.8533    0.3927    2.3214 H   0  0  0  0  0  0  0  0  0  0  0  0
   -4.7122    2.0229    2.3408 H   0  0  0  0  0  0  0  0  0  0  0  0
   -5.3180    3.2487    0.2697 H   0  0  0  0  0  0  0  0  0  0  0  0
   -4.0602    2.8364   -1.8291 H   0  0  0  0  0  0  0  0  0  0  0  0
   -2.2073    1.2006   -1.8668 H   0  0  0  0  0  0  0  0  0  0  0  0
  1  2  1  0
  2  3  1  0
  3  4  1  0
  3  5  1  0
  5  6  1  0
  6  7  1  0
  7  8  2  0
  8  9  1  0
  9 10  1  0
 10 11  2  0
 11 12  1  0
 12 13  2  0
 13 14  1  0
 14 15  2  0
 15 16  1  0
 16 17  2  0
 17 18  1  0
 18 19  2  0
 19 20  1  0
 20 21  2  0
  8 22  1  0
 22 23  2  0
 22  5  1  0
 15  7  1  0
 14  9  1  0
 21 16  1  0
  1 24  1  0
  2 25  1  0
  2 26  1  0
  3 27  1  0
  4 28  1  0
  4 29  1  0
  4 30  1  0
  6 31  1  0
  6 32  1  0
 10 33  1  0
 11 34  1  0
 12 35  1  0
 13 36  1  0
 17 37  1  0
 18 38  1  0
 19 39  1  0
 20 40  1  0
 21 41  1  0
M  END
