
     RDKit          3D

 31 34  0  0  0  0  0  0  0  0999 V2000
   -5.6043   -0.8882   -0.8178 O   0  0  0  0  0  0  0  0  0  0  0  0
   -5.1405    0.2681   -0.1236 C   0  0  0  0  0  0  0  0  0  0  0  0
   -3.6213    0.3816   -0.2425 C   0  0  0  0  0  0  0  0  0  0  0  0
   -3.0228   -0.5698    0.6443 O   0  0  0  0  0  0  0  0  0  0  0  0
   -1.6532   -0.6152    0.6857 C   0  0  0  0  0  0  0  0  0  0  0  0
   -0.7914    0.1741   -0.0860 C   0  0  0  0  0  0  0  0  0  0  0  0
    0.5653   -0.0088    0.0924 C   0  0  0  0  0  0  0  0  0  0  0  0
    1.0751   -0.9764    1.0386 C   0  0  0  0  0  0  0  0  0  0  0  0
    2.5228   -0.9248    0.9890 C   0  0  0  0  0  0  0  0  0  0  0  0
    3.6239   -1.4323    1.4880 N   0  0  0  0  0  0  0  0  0  0  0  0
    4.6528   -0.7386    0.8078 C   0  0  0  0  0  0  0  0  0  0  0  0
    4.1423    0.1816   -0.0944 C   0  0  0  0  0  0  0  0  0  0  0  0
    2.8150    0.0144    0.0691 N   0  0  0  0  0  0  0  0  0  0  0  0
    1.7438    0.6300   -0.5336 C   0  0  0  0  0  0  0  0  0  0  0  0
    2.0393    1.5653   -1.4507 C   0  0  0  0  0  0  0  0  0  0  0  0
    3.4786    1.8251   -1.7057 C   0  0  0  0  0  0  0  0  0  0  0  0
    4.4824    1.1676   -1.0612 C   0  0  0  0  0  0  0  0  0  0  0  0
    0.2323   -1.7536    1.7958 C   0  0  0  0  0  0  0  0  0  0  0  0
   -1.1416   -1.5626    1.6082 C   0  0  0  0  0  0  0  0  0  0  0  0
   -6.5367   -1.0143   -0.5726 H   0  0  0  0  0  0  0  0  0  0  0  0
   -5.4446    0.1841    0.9247 H   0  0  0  0  0  0  0  0  0  0  0  0
   -5.6217    1.1400   -0.5765 H   0  0  0  0  0  0  0  0  0  0  0  0
   -3.3194    1.3923    0.0551 H   0  0  0  0  0  0  0  0  0  0  0  0
   -3.3164    0.1721   -1.2744 H   0  0  0  0  0  0  0  0  0  0  0  0
   -1.1462    0.9025   -0.8026 H   0  0  0  0  0  0  0  0  0  0  0  0
    5.6906   -0.9583    1.0232 H   0  0  0  0  0  0  0  0  0  0  0  0
    1.2891    2.1221   -1.9978 H   0  0  0  0  0  0  0  0  0  0  0  0
    3.7116    2.5826   -2.4495 H   0  0  0  0  0  0  0  0  0  0  0  0
    5.5248    1.3825   -1.2727 H   0  0  0  0  0  0  0  0  0  0  0  0
    0.6132   -2.4813    2.5036 H   0  0  0  0  0  0  0  0  0  0  0  0
   -1.8424   -2.1619    2.1878 H   0  0  0  0  0  0  0  0  0  0  0  0
  1  2  1  0
  2  3  1  0
  3  4  1  0
  4  5  1  0
  5  6  2  0
  6  7  1  0
  7  8  2  0
  8  9  1  0
  9 10  2  0
 10 11  1  0
 11 12  2  0
 12 13  1  0
 13 14  1  0
 14 15  2  0
 15 16  1  0
 16 17  2  0
  8 18  1  0
 18 19  2  0
 19  5  1  0
 14  7  1  0
 13  9  1  0
 17 12  1  0
  1 20  1  0
  2 21  1  0
  2 22  1  0
  3 23  1  0
  3 24  1  0
  6 25  1  0
 11 26  1  0
 15 27  1  0
 16 28  1  0
 17 29  1  0
 18 30  1  0
 19 31  1  0
M  END
