
     RDKit          3D

 26 27  0  0  0  0  0  0  0  0999 V2000
    0.5449   -0.9089   -2.5380 S   0  0  0  0  0  0  0  0  0  0  0  0
    0.6357   -0.3169   -0.9727 C   0  0  0  0  0  0  0  0  0  0  0  0
   -0.3855    0.0263   -0.0943 N   0  0  0  0  0  0  0  0  0  0  0  0
   -1.7938   -0.1054   -0.1522 C   0  0  0  0  0  0  0  0  0  0  0  0
   -2.5047   -0.8322   -1.1070 C   0  0  0  0  0  0  0  0  0  0  0  0
   -3.9034   -0.9038   -1.0618 C   0  0  0  0  0  0  0  0  0  0  0  0
   -4.6100   -0.2545   -0.0540 C   0  0  0  0  0  0  0  0  0  0  0  0
   -3.9104    0.4606    0.9103 C   0  0  0  0  0  0  0  0  0  0  0  0
   -4.8538    1.3416    2.2924 Br  0  0  0  0  0  0  0  0  0  0  0  0
   -2.5161    0.5336    0.8683 C   0  0  0  0  0  0  0  0  0  0  0  0
    1.9761   -0.0611   -0.3674 C   0  0  0  0  0  0  0  0  0  0  0  0
    2.8082    0.9402   -0.8807 C   0  0  0  0  0  0  0  0  0  0  0  0
    4.0421    1.1870   -0.2779 C   0  0  0  0  0  0  0  0  0  0  0  0
    4.4396    0.4405    0.8330 C   0  0  0  0  0  0  0  0  0  0  0  0
    3.6070   -0.5554    1.3464 C   0  0  0  0  0  0  0  0  0  0  0  0
    2.3716   -0.8076    0.7497 C   0  0  0  0  0  0  0  0  0  0  0  0
   -0.0619    0.4979    0.7461 H   0  0  0  0  0  0  0  0  0  0  0  0
   -2.0153   -1.3843   -1.8986 H   0  0  0  0  0  0  0  0  0  0  0  0
   -4.4364   -1.4761   -1.8177 H   0  0  0  0  0  0  0  0  0  0  0  0
   -5.6943   -0.3168   -0.0285 H   0  0  0  0  0  0  0  0  0  0  0  0
   -1.9971    1.1034    1.6347 H   0  0  0  0  0  0  0  0  0  0  0  0
    2.5025    1.5282   -1.7427 H   0  0  0  0  0  0  0  0  0  0  0  0
    4.6957    1.9598   -0.6754 H   0  0  0  0  0  0  0  0  0  0  0  0
    5.4043    0.6330    1.2971 H   0  0  0  0  0  0  0  0  0  0  0  0
    3.9249   -1.1378    2.2078 H   0  0  0  0  0  0  0  0  0  0  0  0
    1.7302   -1.5912    1.1457 H   0  0  0  0  0  0  0  0  0  0  0  0
  1  2  2  0
  2  3  1  0
  3  4  1  0
  4  5  2  0
  5  6  1  0
  6  7  2  0
  7  8  1  0
  8  9  1  0
  8 10  2  0
  2 11  1  0
 11 12  2  0
 12 13  1  0
 13 14  2  0
 14 15  1  0
 15 16  2  0
 10  4  1  0
 16 11  1  0
  3 17  1  0
  5 18  1  0
  6 19  1  0
  7 20  1  0
 10 21  1  0
 12 22  1  0
 13 23  1  0
 14 24  1  0
 15 25  1  0
 16 26  1  0
M  END
