
     RDKit          3D

 47 49  0  0  0  0  0  0  0  0999 V2000
   -3.5709    0.6306   -2.9632 S   0  0  0  0  0  0  0  0  0  0  0  0
   -3.1679    0.0562   -1.4347 C   0  0  0  0  0  0  0  0  0  0  0  0
   -4.0457   -0.5683   -0.5569 N   0  0  0  0  0  0  0  0  0  0  0  0
   -5.4547   -0.5443   -0.4701 C   0  0  0  0  0  0  0  0  0  0  0  0
   -6.0703   -1.5997    0.2164 C   0  0  0  0  0  0  0  0  0  0  0  0
   -7.4582   -1.6366    0.3760 C   0  0  0  0  0  0  0  0  0  0  0  0
   -8.2441   -0.6075   -0.1342 C   0  0  0  0  0  0  0  0  0  0  0  0
   -7.6400    0.4603   -0.7929 C   0  0  0  0  0  0  0  0  0  0  0  0
   -6.2506    0.4957   -0.9525 C   0  0  0  0  0  0  0  0  0  0  0  0
   -1.8552    0.0998   -0.9196 N   0  0  0  0  0  0  0  0  0  0  0  0
   -1.5775    0.0276    0.5265 C   0  0  0  0  0  0  0  0  0  0  0  0
   -0.3333    0.8412    0.9235 C   0  0  0  0  0  0  0  0  0  0  0  0
    0.8960    0.3720    0.2580 N   0  0  0  0  0  0  0  0  0  0  0  0
    1.9680    1.3639    0.3912 C   0  0  0  0  0  0  0  0  0  0  0  0
    3.3245    0.7398    0.2193 C   0  0  0  0  0  0  0  0  0  0  0  0
    4.2847    0.7625    1.1591 C   0  0  0  0  0  0  0  0  0  0  0  0
    5.6153    0.1644    0.9867 C   0  0  0  0  0  0  0  0  0  0  0  0
    6.7301    0.8211    1.5233 C   0  0  0  0  0  0  0  0  0  0  0  0
    8.0077    0.2684    1.4025 C   0  0  0  0  0  0  0  0  0  0  0  0
    8.1812   -0.9526    0.7542 C   0  0  0  0  0  0  0  0  0  0  0  0
    7.0778   -1.6236    0.2312 C   0  0  0  0  0  0  0  0  0  0  0  0
    5.8004   -1.0704    0.3513 C   0  0  0  0  0  0  0  0  0  0  0  0
    0.6428   -0.0316   -1.1419 C   0  0  0  0  0  0  0  0  0  0  0  0
   -0.6886    0.4570   -1.7482 C   0  0  0  0  0  0  0  0  0  0  0  0
   -3.6033   -1.3062   -0.0257 H   0  0  0  0  0  0  0  0  0  0  0  0
   -5.4805   -2.4171    0.6227 H   0  0  0  0  0  0  0  0  0  0  0  0
   -7.9237   -2.4687    0.8975 H   0  0  0  0  0  0  0  0  0  0  0  0
   -9.3238   -0.6323   -0.0127 H   0  0  0  0  0  0  0  0  0  0  0  0
   -8.2471    1.2754   -1.1788 H   0  0  0  0  0  0  0  0  0  0  0  0
   -5.8184    1.3683   -1.4299 H   0  0  0  0  0  0  0  0  0  0  0  0
   -1.4370   -1.0303    0.7790 H   0  0  0  0  0  0  0  0  0  0  0  0
   -2.4412    0.3992    1.0887 H   0  0  0  0  0  0  0  0  0  0  0  0
   -0.1987    0.7730    2.0094 H   0  0  0  0  0  0  0  0  0  0  0  0
   -0.5198    1.8967    0.6815 H   0  0  0  0  0  0  0  0  0  0  0  0
    1.9220    1.8241    1.3874 H   0  0  0  0  0  0  0  0  0  0  0  0
    1.8413    2.1795   -0.3319 H   0  0  0  0  0  0  0  0  0  0  0  0
    3.5232    0.2717   -0.7405 H   0  0  0  0  0  0  0  0  0  0  0  0
    4.1078    1.2544    2.1125 H   0  0  0  0  0  0  0  0  0  0  0  0
    6.6145    1.7748    2.0331 H   0  0  0  0  0  0  0  0  0  0  0  0
    8.8661    0.7912    1.8161 H   0  0  0  0  0  0  0  0  0  0  0  0
    9.1746   -1.3836    0.6615 H   0  0  0  0  0  0  0  0  0  0  0  0
    7.2087   -2.5813   -0.2657 H   0  0  0  0  0  0  0  0  0  0  0  0
    4.9501   -1.6197   -0.0456 H   0  0  0  0  0  0  0  0  0  0  0  0
    1.4588    0.2632   -1.8120 H   0  0  0  0  0  0  0  0  0  0  0  0
    0.6314   -1.1292   -1.1507 H   0  0  0  0  0  0  0  0  0  0  0  0
   -0.6769    1.5490   -1.8509 H   0  0  0  0  0  0  0  0  0  0  0  0
   -0.7994    0.0223   -2.7469 H   0  0  0  0  0  0  0  0  0  0  0  0
  1  2  2  0
  2  3  1  0
  3  4  1  0
  4  5  2  0
  5  6  1  0
  6  7  2  0
  7  8  1  0
  8  9  2  0
  2 10  1  0
 10 11  1  0
 11 12  1  0
 12 13  1  0
 13 14  1  0
 14 15  1  0
 15 16  2  3
 16 17  1  0
 17 18  2  0
 18 19  1  0
 19 20  2  0
 20 21  1  0
 21 22  2  0
 13 23  1  0
 23 24  1  0
  9  4  1  0
 24 10  1  0
 22 17  1  0
  3 25  1  0
  5 26  1  0
  6 27  1  0
  7 28  1  0
  8 29  1  0
  9 30  1  0
 11 31  1  0
 11 32  1  0
 12 33  1  0
 12 34  1  0
 14 35  1  0
 14 36  1  0
 15 37  1  0
 16 38  1  0
 18 39  1  0
 19 40  1  0
 20 41  1  0
 21 42  1  0
 22 43  1  0
 23 44  1  0
 23 45  1  0
 24 46  1  0
 24 47  1  0
M  END
