
     RDKit          3D

 43 49  0  0  0  0  0  0  0  0999 V2000
    3.9526   -1.0492   -0.6134 Si  0  0  0  0  0  4  0  0  0  0  0  0
    4.8885    0.6263   -0.5620 C   0  0  0  0  0  0  0  0  0  0  0  0
    6.2419    0.8931   -0.6885 C   0  0  0  0  0  0  0  0  0  0  0  0
    6.6212    2.2270   -0.6064 C   0  0  0  0  0  0  0  0  0  0  0  0
    5.7654    3.2678   -0.4134 N   0  0  0  0  0  0  0  0  0  0  0  0
    4.4471    2.9745   -0.2924 C   0  0  0  0  0  0  0  0  0  0  0  0
    3.9671    1.6851   -0.3596 C   0  0  0  0  0  0  0  0  0  0  0  0
    2.6007    1.2060   -0.2521 C   0  0  0  0  0  0  0  0  0  0  0  0
    1.4167    1.8413   -0.0538 N   0  0  0  0  0  0  0  0  0  0  0  0
    0.3949    0.9019   -0.0314 C   0  0  0  0  0  0  0  0  0  0  0  0
   -0.9755    1.1132    0.1392 C   0  0  0  0  0  0  0  0  0  0  0  0
   -1.8480    0.0088    0.1346 C   0  0  0  0  0  0  0  0  0  0  0  0
   -3.2828    0.2789    0.2819 C   0  0  0  0  0  0  0  0  0  0  0  0
   -4.1752    0.2930   -0.8178 C   0  0  0  0  0  0  0  0  0  0  0  0
   -5.5608    0.5531   -0.7007 C   0  0  0  0  0  0  0  0  0  0  0  0
   -6.1857    0.8272    0.5267 C   0  0  0  0  0  0  0  0  0  0  0  0
   -5.3486    0.8346    1.6681 C   0  0  0  0  0  0  0  0  0  0  0  0
   -5.7493    1.0761    2.9258 N   0  0  0  0  0  0  0  0  0  0  0  0
   -4.3947    0.9640    3.8786 S   0  0  0  0  0  0  0  0  0  0  0  0
   -3.2400    0.6146    2.7419 N   0  0  0  0  0  0  0  0  0  0  0  0
   -3.8662    0.5581    1.5529 C   0  0  0  0  0  0  0  0  0  0  0  0
   -1.3355   -1.3063   -0.0326 C   0  0  0  0  0  0  0  0  0  0  0  0
   -2.1586   -2.4587   -0.0250 C   0  0  0  0  0  0  0  0  0  0  0  0
   -1.6386   -3.7437   -0.1959 C   0  0  0  0  0  0  0  0  0  0  0  0
   -0.2753   -3.9195   -0.3776 C   0  0  0  0  0  0  0  0  0  0  0  0
    0.5708   -2.8118   -0.3842 C   0  0  0  0  0  0  0  0  0  0  0  0
    0.0646   -1.5032   -0.2115 C   0  0  0  0  0  0  0  0  0  0  0  0
    0.9466   -0.3779   -0.2121 C   0  0  0  0  0  0  0  0  0  0  0  0
    2.3246   -0.1426   -0.3477 C   0  0  0  0  0  0  0  0  0  0  0  0
    4.0788   -1.6907   -1.9477 H   0  0  0  0  0  0  0  0  0  0  0  0
    4.3561   -1.9228    0.5183 H   0  0  0  0  0  0  0  0  0  0  0  0
    6.9786    0.1142   -0.8434 H   0  0  0  0  0  0  0  0  0  0  0  0
    7.6668    2.5115   -0.6966 H   0  0  0  0  0  0  0  0  0  0  0  0
    3.7963    3.8274   -0.1391 H   0  0  0  0  0  0  0  0  0  0  0  0
    1.2827    2.8357    0.0631 H   0  0  0  0  0  0  0  0  0  0  0  0
   -1.3633    2.1196    0.2760 H   0  0  0  0  0  0  0  0  0  0  0  0
   -3.7744    0.0904   -1.8132 H   0  0  0  0  0  0  0  0  0  0  0  0
   -6.1702    0.5403   -1.6049 H   0  0  0  0  0  0  0  0  0  0  0  0
   -7.2481    1.0248    0.6034 H   0  0  0  0  0  0  0  0  0  0  0  0
   -3.2324   -2.3710    0.1256 H   0  0  0  0  0  0  0  0  0  0  0  0
   -2.3029   -4.6037   -0.1814 H   0  0  0  0  0  0  0  0  0  0  0  0
    0.1336   -4.9177   -0.5087 H   0  0  0  0  0  0  0  0  0  0  0  0
    1.6304   -2.9898   -0.5228 H   0  0  0  0  0  0  0  0  0  0  0  0
  1  2  1  0
  2  3  2  0
  3  4  1  0
  4  5  2  0
  5  6  1  0
  6  7  2  0
  7  8  1  0
  8  9  1  0
  9 10  1  0
 10 11  2  0
 11 12  1  0
 12 13  1  0
 13 14  2  0
 14 15  1  0
 15 16  2  0
 16 17  1  0
 17 18  2  0
 18 19  1  0
 19 20  1  0
 20 21  2  0
 12 22  2  0
 22 23  1  0
 23 24  2  0
 24 25  1  0
 25 26  2  0
 26 27  1  0
 27 28  2  0
 28 29  1  0
 29  1  1  0
  7  2  1  0
 29  8  2  0
 28 10  1  0
 21 13  1  0
 27 22  1  0
 21 17  1  0
  1 30  1  0
  1 31  1  0
  3 32  1  0
  4 33  1  0
  6 34  1  0
  9 35  1  0
 11 36  1  0
 14 37  1  0
 15 38  1  0
 16 39  1  0
 23 40  1  0
 24 41  1  0
 25 42  1  0
 26 43  1  0
M  END
