
     RDKit          3D

 41 47  0  0  0  0  0  0  0  0999 V2000
    2.0054   -1.1862    0.9397 Si  0  0  0  0  0  4  0  0  0  0  0  0
    2.7233   -0.2196   -0.5197 C   0  0  0  0  0  0  0  0  0  0  0  0
    1.7438    0.4920   -1.1195 C   0  0  0  0  0  0  0  0  0  0  0  0
    0.4115    0.3473   -0.5156 C   0  0  0  0  0  0  0  0  0  0  0  0
   -0.6232    1.0097   -1.0355 N   0  0  0  0  0  0  0  0  0  0  0  0
   -1.8188    0.8194   -0.4166 C   0  0  0  0  0  0  0  0  0  0  0  0
   -2.0768    0.0023    0.7075 C   0  0  0  0  0  0  0  0  0  0  0  0
   -0.9419   -0.6712    1.2098 C   0  0  0  0  0  0  0  0  0  0  0  0
   -1.1299   -1.4942    2.3185 C   0  0  0  0  0  0  0  0  0  0  0  0
   -2.3036   -1.6999    2.9495 N   0  0  0  0  0  0  0  0  0  0  0  0
   -3.3962   -1.0824    2.5057 C   0  0  0  0  0  0  0  0  0  0  0  0
   -4.5614   -1.3798    3.2508 C   0  0  0  0  0  0  0  0  0  0  0  0
   -5.8514   -0.8752    3.0133 C   0  0  0  0  0  0  0  0  0  0  0  0
   -5.8539   -0.0203    1.9249 C   0  0  0  0  0  0  0  0  0  0  0  0
   -7.0159    0.5867    1.5171 C   0  0  0  0  0  0  0  0  0  0  0  0
   -6.7435    1.5865    0.1586 S   0  0  0  0  0  0  0  0  0  0  0  0
   -5.0655    1.1964    0.1282 C   0  0  0  0  0  0  0  0  0  0  0  0
   -4.6941    0.3219    1.1244 C   0  0  0  0  0  0  0  0  0  0  0  0
   -3.3634   -0.1995    1.3700 C   0  0  0  0  0  0  0  0  0  0  0  0
    0.3085   -0.4943    0.5908 C   0  0  0  0  0  0  0  0  0  0  0  0
    4.0965   -0.2323   -0.9358 C   0  0  0  0  0  0  0  0  0  0  0  0
    5.2844   -1.1957   -0.0832 S   0  0  0  0  0  0  0  0  0  0  0  0
    6.5775   -0.7256   -1.0890 C   0  0  0  0  0  0  0  0  0  0  0  0
    6.1600    0.1399   -2.0596 C   0  0  0  0  0  0  0  0  0  0  0  0
    7.0103    0.6589   -2.9884 N   0  0  0  0  0  0  0  0  0  0  0  0
    6.3482    1.4889   -3.8369 C   0  0  0  0  0  0  0  0  0  0  0  0
    4.9820    1.7769   -3.7733 C   0  0  0  0  0  0  0  0  0  0  0  0
    4.1170    1.2702   -2.8555 N   0  0  0  0  0  0  0  0  0  0  0  0
    4.7443    0.4273   -1.9797 C   0  0  0  0  0  0  0  0  0  0  0  0
    2.5228   -0.7300    2.2549 H   0  0  0  0  0  0  0  0  0  0  0  0
    2.0473   -2.6577    0.7443 H   0  0  0  0  0  0  0  0  0  0  0  0
    1.8479    1.1396   -1.9788 H   0  0  0  0  0  0  0  0  0  0  0  0
   -2.5970    1.3897   -0.9004 H   0  0  0  0  0  0  0  0  0  0  0  0
   -0.3095   -2.0486    2.7676 H   0  0  0  0  0  0  0  0  0  0  0  0
   -4.4468   -2.0679    4.0919 H   0  0  0  0  0  0  0  0  0  0  0  0
   -6.7065   -1.1406    3.6202 H   0  0  0  0  0  0  0  0  0  0  0  0
   -8.0095    0.5025    1.9366 H   0  0  0  0  0  0  0  0  0  0  0  0
   -4.4985    1.6697   -0.6517 H   0  0  0  0  0  0  0  0  0  0  0  0
    7.5772   -1.1009   -0.9259 H   0  0  0  0  0  0  0  0  0  0  0  0
    6.9656    1.9415   -4.6077 H   0  0  0  0  0  0  0  0  0  0  0  0
    4.5339    2.4544   -4.4950 H   0  0  0  0  0  0  0  0  0  0  0  0
  1  2  1  0
  2  3  2  0
  3  4  1  0
  4  5  2  0
  5  6  1  0
  6  7  2  0
  7  8  1  0
  8  9  1  0
  9 10  2  0
 10 11  1  0
 11 12  1  0
 12 13  2  0
 13 14  1  0
 14 15  2  0
 15 16  1  0
 16 17  1  0
 17 18  2  0
 18 19  1  0
  8 20  2  0
  2 21  1  0
 21 22  1  0
 22 23  1  0
 23 24  2  0
 24 25  1  0
 25 26  2  0
 26 27  1  0
 27 28  2  0
 28 29  1  0
 20  1  1  0
 29 21  2  0
 20  4  1  0
 29 24  1  0
 19  7  1  0
 19 11  2  0
 18 14  1  0
  1 30  1  0
  1 31  1  0
  3 32  1  0
  6 33  1  0
  9 34  1  0
 12 35  1  0
 13 36  1  0
 15 37  1  0
 17 38  1  0
 23 39  1  0
 26 40  1  0
 27 41  1  0
M  END
