
     RDKit          3D

 34 39  0  0  0  0  0  0  0  0999 V2000
    0.2904    4.1144    0.7353 Si  0  0  0  0  0  4  0  0  0  0  0  0
    1.3527    2.6102    0.5511 C   0  0  0  0  0  0  0  0  0  0  0  0
    0.6307    1.4975    0.3056 C   0  0  0  0  0  0  0  0  0  0  0  0
   -0.8394    1.7275    0.2392 C   0  0  0  0  0  0  0  0  0  0  0  0
   -1.1935    3.0178    0.4375 C   0  0  0  0  0  0  0  0  0  0  0  0
   -1.7933    0.6042   -0.0249 C   0  0  0  0  0  0  0  0  0  0  0  0
   -3.2098    0.8616   -0.0827 C   0  0  0  0  0  0  0  0  0  0  0  0
   -4.1931   -0.1148   -0.3234 C   0  0  0  0  0  0  0  0  0  0  0  0
   -3.6400   -1.3765   -0.5025 C   0  0  0  0  0  0  0  0  0  0  0  0
   -4.4464   -2.4605   -0.7491 C   0  0  0  0  0  0  0  0  0  0  0  0
   -3.5237   -3.8871   -0.9301 S   0  0  0  0  0  0  0  0  0  0  0  0
   -2.0464   -3.0401   -0.6761 C   0  0  0  0  0  0  0  0  0  0  0  0
   -2.2211   -1.6920   -0.4546 C   0  0  0  0  0  0  0  0  0  0  0  0
   -1.2229   -0.7111   -0.2120 C   0  0  0  0  0  0  0  0  0  0  0  0
    0.2461   -0.8736   -0.1338 C   0  0  0  0  0  0  0  0  0  0  0  0
    1.0885   -2.3416   -0.3277 S   0  0  0  0  0  0  0  0  0  0  0  0
    2.6220   -1.6322   -0.0935 C   0  0  0  0  0  0  0  0  0  0  0  0
    3.8780   -2.2578   -0.1112 C   0  0  0  0  0  0  0  0  0  0  0  0
    4.9929   -1.4596    0.1081 C   0  0  0  0  0  0  0  0  0  0  0  0
    4.8063   -0.1095    0.3290 C   0  0  0  0  0  0  0  0  0  0  0  0
    3.6164    0.5174    0.3516 N   0  0  0  0  0  0  0  0  0  0  0  0
    2.5151   -0.2623    0.1366 C   0  0  0  0  0  0  0  0  0  0  0  0
    1.1419    0.1662    0.1115 C   0  0  0  0  0  0  0  0  0  0  0  0
    0.4778    5.1011   -0.3555 H   0  0  0  0  0  0  0  0  0  0  0  0
    0.2994    4.6733    2.1087 H   0  0  0  0  0  0  0  0  0  0  0  0
    2.4247    2.6833    0.6414 H   0  0  0  0  0  0  0  0  0  0  0  0
   -2.1752    3.4588    0.4430 H   0  0  0  0  0  0  0  0  0  0  0  0
   -3.5767    1.8754    0.0667 H   0  0  0  0  0  0  0  0  0  0  0  0
   -5.2493    0.1190   -0.3593 H   0  0  0  0  0  0  0  0  0  0  0  0
   -5.5239   -2.4994   -0.8338 H   0  0  0  0  0  0  0  0  0  0  0  0
   -1.1537   -3.6390   -0.7155 H   0  0  0  0  0  0  0  0  0  0  0  0
    3.9738   -3.3238   -0.2893 H   0  0  0  0  0  0  0  0  0  0  0  0
    5.9902   -1.8859    0.1063 H   0  0  0  0  0  0  0  0  0  0  0  0
    5.6616    0.5391    0.5035 H   0  0  0  0  0  0  0  0  0  0  0  0
  1  2  1  0
  2  3  2  0
  3  4  1  0
  4  5  2  0
  4  6  1  0
  6  7  1  0
  7  8  2  0
  8  9  1  0
  9 10  2  0
 10 11  1  0
 11 12  1  0
 12 13  2  0
 13 14  1  0
 14 15  1  0
 15 16  1  0
 16 17  1  0
 17 18  2  0
 18 19  1  0
 19 20  2  0
 20 21  1  0
 21 22  2  0
 22 23  1  0
  5  1  1  0
 14  6  2  0
 23 15  2  0
 23  3  1  0
 13  9  1  0
 22 17  1  0
  1 24  1  0
  1 25  1  0
  2 26  1  0
  5 27  1  0
  7 28  1  0
  8 29  1  0
 10 30  1  0
 12 31  1  0
 18 32  1  0
 19 33  1  0
 20 34  1  0
M  END
