
     RDKit          3D

 42 47  0  0  0  0  0  0  0  0999 V2000
   -1.7559    3.1854    0.2328 Si  0  0  0  0  0  4  0  0  0  0  0  0
   -2.7397    1.6128    0.4229 C   0  0  0  0  0  0  0  0  0  0  0  0
   -1.9444    0.5234    0.3791 C   0  0  0  0  0  0  0  0  0  0  0  0
   -2.3865   -0.8743    0.4890 C   0  0  0  0  0  0  0  0  0  0  0  0
   -1.4244   -1.8269    0.4381 C   0  0  0  0  0  0  0  0  0  0  0  0
   -0.0030   -1.5263    0.2806 C   0  0  0  0  0  0  0  0  0  0  0  0
    0.4715   -0.2657    0.1666 C   0  0  0  0  0  0  0  0  0  0  0  0
    1.9224   -0.0875    0.0163 C   0  0  0  0  0  0  0  0  0  0  0  0
    2.5540   -0.2737   -1.2124 C   0  0  0  0  0  0  0  0  0  0  0  0
    3.9330   -0.0835   -1.3165 C   0  0  0  0  0  0  0  0  0  0  0  0
    4.6533    0.2938   -0.1846 C   0  0  0  0  0  0  0  0  0  0  0  0
    4.0565    0.4825    1.0173 N   0  0  0  0  0  0  0  0  0  0  0  0
    2.7169    0.2915    1.0910 C   0  0  0  0  0  0  0  0  0  0  0  0
    6.1055    0.5025   -0.2231 C   0  0  0  0  0  0  0  0  0  0  0  0
    7.0386    0.1223   -1.1756 C   0  0  0  0  0  0  0  0  0  0  0  0
    8.3528    0.4787   -0.9341 N   0  0  0  0  0  0  0  0  0  0  0  0
    8.4144    1.1238    0.2081 C   0  0  0  0  0  0  0  0  0  0  0  0
    6.9341    1.3428    1.0365 S   0  0  0  0  0  0  0  0  0  0  0  0
   -0.4982    0.8292    0.2120 C   0  0  0  0  0  0  0  0  0  0  0  0
   -0.2099    2.1432    0.1148 C   0  0  0  0  0  0  0  0  0  0  0  0
   -3.7325   -1.3069    0.6317 C   0  0  0  0  0  0  0  0  0  0  0  0
   -4.3779   -2.1266    2.0225 S   0  0  0  0  0  0  0  0  0  0  0  0
   -5.9843   -2.2265    1.3558 C   0  0  0  0  0  0  0  0  0  0  0  0
   -5.9585   -1.6449    0.1384 C   0  0  0  0  0  0  0  0  0  0  0  0
   -6.8104   -1.3559   -0.9387 C   0  0  0  0  0  0  0  0  0  0  0  0
   -5.9974   -0.7060   -1.8765 C   0  0  0  0  0  0  0  0  0  0  0  0
   -4.6811   -0.5552   -1.4804 O   0  0  0  0  0  0  0  0  0  0  0  0
   -4.7393   -1.1462   -0.2533 C   0  0  0  0  0  0  0  0  0  0  0  0
   -2.0536    3.8984   -1.0327 H   0  0  0  0  0  0  0  0  0  0  0  0
   -1.7789    4.0208    1.4577 H   0  0  0  0  0  0  0  0  0  0  0  0
   -3.8115    1.6383    0.5379 H   0  0  0  0  0  0  0  0  0  0  0  0
   -1.6742   -2.8836    0.5027 H   0  0  0  0  0  0  0  0  0  0  0  0
    0.6645   -2.3848    0.2607 H   0  0  0  0  0  0  0  0  0  0  0  0
    1.9789   -0.5583   -2.0903 H   0  0  0  0  0  0  0  0  0  0  0  0
    4.4159   -0.2217   -2.2775 H   0  0  0  0  0  0  0  0  0  0  0  0
    2.2873    0.4595    2.0755 H   0  0  0  0  0  0  0  0  0  0  0  0
    6.8186   -0.4297   -2.0811 H   0  0  0  0  0  0  0  0  0  0  0  0
    9.3464    1.5000    0.6091 H   0  0  0  0  0  0  0  0  0  0  0  0
    0.7591    2.5991   -0.0129 H   0  0  0  0  0  0  0  0  0  0  0  0
   -6.7928   -2.6916    1.9013 H   0  0  0  0  0  0  0  0  0  0  0  0
   -7.8625   -1.5735   -1.0517 H   0  0  0  0  0  0  0  0  0  0  0  0
   -6.2067   -0.2989   -2.8573 H   0  0  0  0  0  0  0  0  0  0  0  0
  1  2  1  0
  2  3  2  0
  3  4  1  0
  4  5  2  0
  5  6  1  0
  6  7  2  0
  7  8  1  0
  8  9  2  0
  9 10  1  0
 10 11  2  0
 11 12  1  0
 12 13  2  0
 11 14  1  0
 14 15  2  0
 15 16  1  0
 16 17  2  0
 17 18  1  0
  7 19  1  0
 19 20  2  0
  4 21  1  0
 21 22  1  0
 22 23  1  0
 23 24  2  0
 24 25  1  0
 25 26  2  0
 26 27  1  0
 27 28  1  0
 20  1  1  0
 28 21  2  0
 19  3  1  0
 28 24  1  0
 13  8  1  0
 18 14  1  0
  1 29  1  0
  1 30  1  0
  2 31  1  0
  5 32  1  0
  6 33  1  0
  9 34  1  0
 10 35  1  0
 13 36  1  0
 15 37  1  0
 17 38  1  0
 20 39  1  0
 23 40  1  0
 25 41  1  0
 26 42  1  0
M  END
