
     RDKit          3D

 36 40  0  0  0  0  0  0  0  0999 V2000
   -2.3121   -2.7630    1.4782 Si  0  0  0  0  0  4  0  0  0  0  0  0
   -0.7352   -1.9708    0.8716 C   0  0  0  0  0  0  0  0  0  0  0  0
   -0.9868   -0.8428    0.1751 C   0  0  0  0  0  0  0  0  0  0  0  0
    0.0206    0.0228   -0.4479 C   0  0  0  0  0  0  0  0  0  0  0  0
   -0.4296    1.1149   -1.1087 C   0  0  0  0  0  0  0  0  0  0  0  0
   -1.8456    1.4643   -1.2049 C   0  0  0  0  0  0  0  0  0  0  0  0
   -2.8341    0.7143   -0.6627 C   0  0  0  0  0  0  0  0  0  0  0  0
   -4.1784    1.1798   -0.8001 C   0  0  0  0  0  0  0  0  0  0  0  0
   -5.0765    1.5870    0.1742 C   0  0  0  0  0  0  0  0  0  0  0  0
   -6.3315    1.9666   -0.2630 N   0  0  0  0  0  0  0  0  0  0  0  0
   -6.3843    1.8398   -1.5693 C   0  0  0  0  0  0  0  0  0  0  0  0
   -4.9634    1.2682   -2.3362 S   0  0  0  0  0  0  0  0  0  0  0  0
   -2.4290   -0.4953    0.0651 C   0  0  0  0  0  0  0  0  0  0  0  0
   -3.2597   -1.3725    0.6666 C   0  0  0  0  0  0  0  0  0  0  0  0
    1.4307   -0.2187   -0.4465 C   0  0  0  0  0  0  0  0  0  0  0  0
    2.1422   -1.1783   -1.1400 C   0  0  0  0  0  0  0  0  0  0  0  0
    3.5423   -1.1267   -0.8741 C   0  0  0  0  0  0  0  0  0  0  0  0
    3.8839   -0.1334    0.0264 C   0  0  0  0  0  0  0  0  0  0  0  0
    2.4815    0.7212    0.5339 S   0  0  0  0  0  0  0  0  0  0  0  0
    5.1978    0.2063    0.5259 C   0  0  0  0  0  0  0  0  0  0  0  0
    5.5598    1.1821    1.4426 C   0  0  0  0  0  0  0  0  0  0  0  0
    6.9083    1.2849    1.7370 N   0  0  0  0  0  0  0  0  0  0  0  0
    7.5660    0.3860    1.0426 C   0  0  0  0  0  0  0  0  0  0  0  0
    6.6284   -0.6136    0.0185 S   0  0  0  0  0  0  0  0  0  0  0  0
   -2.4280   -2.7375    2.9557 H   0  0  0  0  0  0  0  0  0  0  0  0
   -2.5691   -4.0731    0.8338 H   0  0  0  0  0  0  0  0  0  0  0  0
    0.2269   -2.4094    1.0846 H   0  0  0  0  0  0  0  0  0  0  0  0
    0.2587    1.7927   -1.6090 H   0  0  0  0  0  0  0  0  0  0  0  0
   -2.0638    2.3865   -1.7392 H   0  0  0  0  0  0  0  0  0  0  0  0
   -4.8575    1.6256    1.2350 H   0  0  0  0  0  0  0  0  0  0  0  0
   -7.2742    2.0797   -2.1363 H   0  0  0  0  0  0  0  0  0  0  0  0
   -4.3368   -1.3381    0.7106 H   0  0  0  0  0  0  0  0  0  0  0  0
    1.6757   -1.8881   -1.8133 H   0  0  0  0  0  0  0  0  0  0  0  0
    4.2565   -1.8005   -1.3318 H   0  0  0  0  0  0  0  0  0  0  0  0
    4.8758    1.8605    1.9390 H   0  0  0  0  0  0  0  0  0  0  0  0
    8.6407    0.2785    1.1100 H   0  0  0  0  0  0  0  0  0  0  0  0
  1  2  1  0
  2  3  2  0
  3  4  1  0
  4  5  2  0
  5  6  1  0
  6  7  2  0
  7  8  1  0
  8  9  2  0
  9 10  1  0
 10 11  2  0
 11 12  1  0
  7 13  1  0
 13 14  2  0
  4 15  1  0
 15 16  2  0
 16 17  1  0
 17 18  2  0
 18 19  1  0
 18 20  1  0
 20 21  2  0
 21 22  1  0
 22 23  2  0
 23 24  1  0
 14  1  1  0
 19 15  1  0
 24 20  1  0
 13  3  1  0
 12  8  1  0
  1 25  1  0
  1 26  1  0
  2 27  1  0
  5 28  1  0
  6 29  1  0
  9 30  1  0
 11 31  1  0
 14 32  1  0
 16 33  1  0
 17 34  1  0
 21 35  1  0
 23 36  1  0
M  END
