
     RDKit          3D

 44 50  0  0  0  0  0  0  0  0999 V2000
   -1.4874    1.9751   -2.8915 Si  0  0  0  0  0  4  0  0  0  0  0  0
   -2.7309    1.3451   -1.6556 C   0  0  0  0  0  0  0  0  0  0  0  0
   -2.1258    0.7492   -0.6066 C   0  0  0  0  0  0  0  0  0  0  0  0
   -2.8040    0.1318    0.5409 C   0  0  0  0  0  0  0  0  0  0  0  0
   -2.0136   -0.4040    1.5010 C   0  0  0  0  0  0  0  0  0  0  0  0
   -0.5537   -0.3886    1.4414 C   0  0  0  0  0  0  0  0  0  0  0  0
    0.1440    0.1558    0.4166 C   0  0  0  0  0  0  0  0  0  0  0  0
    1.5623    0.1116    0.4905 C   0  0  0  0  0  0  0  0  0  0  0  0
    2.5192   -1.3319    0.4561 S   0  0  0  0  0  0  0  0  0  0  0  0
    4.0396   -0.4770    0.5685 C   0  0  0  0  0  0  0  0  0  0  0  0
    5.3202   -1.1369    0.5730 C   0  0  0  0  0  0  0  0  0  0  0  0
    6.5072   -0.6468    0.0567 C   0  0  0  0  0  0  0  0  0  0  0  0
    7.6019   -1.5435    0.2347 C   0  0  0  0  0  0  0  0  0  0  0  0
    7.2213   -2.6934    0.8860 C   0  0  0  0  0  0  0  0  0  0  0  0
    5.5583   -2.6868    1.2756 S   0  0  0  0  0  0  0  0  0  0  0  0
    3.7455    0.8458    0.6200 C   0  0  0  0  0  0  0  0  0  0  0  0
    4.3775    2.1005    0.7259 C   0  0  0  0  0  0  0  0  0  0  0  0
    3.3368    3.0365    0.7293 C   0  0  0  0  0  0  0  0  0  0  0  0
    2.0760    2.4809    0.6369 O   0  0  0  0  0  0  0  0  0  0  0  0
    2.4068    1.1594    0.5784 C   0  0  0  0  0  0  0  0  0  0  0  0
   -0.6383    0.7548   -0.6729 C   0  0  0  0  0  0  0  0  0  0  0  0
   -0.1338    1.3323   -1.7836 C   0  0  0  0  0  0  0  0  0  0  0  0
   -4.2106    0.0386    0.7202 C   0  0  0  0  0  0  0  0  0  0  0  0
   -5.1109    0.8144    1.9895 S   0  0  0  0  0  0  0  0  0  0  0  0
   -6.6417    0.1980    1.4315 C   0  0  0  0  0  0  0  0  0  0  0  0
   -6.4057   -0.5484    0.3323 C   0  0  0  0  0  0  0  0  0  0  0  0
   -7.0931   -1.3208   -0.6164 C   0  0  0  0  0  0  0  0  0  0  0  0
   -6.0994   -1.7956   -1.4824 C   0  0  0  0  0  0  0  0  0  0  0  0
   -4.8196   -1.3835   -1.1595 O   0  0  0  0  0  0  0  0  0  0  0  0
   -5.0894   -0.6338   -0.0534 C   0  0  0  0  0  0  0  0  0  0  0  0
   -1.4861    3.4547   -2.9934 H   0  0  0  0  0  0  0  0  0  0  0  0
   -1.5516    1.2545   -4.1862 H   0  0  0  0  0  0  0  0  0  0  0  0
   -3.7897    1.4605   -1.8231 H   0  0  0  0  0  0  0  0  0  0  0  0
   -2.4397   -0.8889    2.3763 H   0  0  0  0  0  0  0  0  0  0  0  0
   -0.0474   -0.8427    2.2902 H   0  0  0  0  0  0  0  0  0  0  0  0
    6.5928    0.3106   -0.4423 H   0  0  0  0  0  0  0  0  0  0  0  0
    8.6143   -1.3542   -0.1006 H   0  0  0  0  0  0  0  0  0  0  0  0
    7.8384   -3.5406    1.1522 H   0  0  0  0  0  0  0  0  0  0  0  0
    5.4312    2.3261    0.8009 H   0  0  0  0  0  0  0  0  0  0  0  0
    3.3340    4.1168    0.7959 H   0  0  0  0  0  0  0  0  0  0  0  0
    0.9046    1.4506   -2.0481 H   0  0  0  0  0  0  0  0  0  0  0  0
   -7.5636    0.4307    1.9448 H   0  0  0  0  0  0  0  0  0  0  0  0
   -8.1513   -1.5253   -0.6900 H   0  0  0  0  0  0  0  0  0  0  0  0
   -6.1450   -2.4278   -2.3596 H   0  0  0  0  0  0  0  0  0  0  0  0
  1  2  1  0
  2  3  2  0
  3  4  1  0
  4  5  2  0
  5  6  1  0
  6  7  2  0
  7  8  1  0
  8  9  1  0
  9 10  1  0
 10 11  1  0
 11 12  2  0
 12 13  1  0
 13 14  2  0
 14 15  1  0
 10 16  2  0
 16 17  1  0
 17 18  2  0
 18 19  1  0
 19 20  1  0
  7 21  1  0
 21 22  2  0
  4 23  1  0
 23 24  1  0
 24 25  1  0
 25 26  2  0
 26 27  1  0
 27 28  2  0
 28 29  1  0
 29 30  1  0
 22  1  1  0
 30 23  2  0
 21  3  1  0
 30 26  1  0
 20  8  2  0
 15 11  1  0
 20 16  1  0
  1 31  1  0
  1 32  1  0
  2 33  1  0
  5 34  1  0
  6 35  1  0
 12 36  1  0
 13 37  1  0
 14 38  1  0
 17 39  1  0
 18 40  1  0
 22 41  1  0
 25 42  1  0
 27 43  1  0
 28 44  1  0
M  END
