
     RDKit          3D

 44 50  0  0  0  0  0  0  0  0999 V2000
   -1.6991   -1.8946   -3.0256 Si  0  0  0  0  0  4  0  0  0  0  0  0
   -2.7717   -1.5474   -1.5365 C   0  0  0  0  0  0  0  0  0  0  0  0
   -2.0632   -0.9735   -0.5418 C   0  0  0  0  0  0  0  0  0  0  0  0
   -2.5852   -0.5737    0.7697 C   0  0  0  0  0  0  0  0  0  0  0  0
   -1.7175    0.0162    1.6257 C   0  0  0  0  0  0  0  0  0  0  0  0
   -0.3107    0.2491    1.3054 C   0  0  0  0  0  0  0  0  0  0  0  0
    0.2449   -0.1053    0.1237 C   0  0  0  0  0  0  0  0  0  0  0  0
    1.6253    0.1933   -0.0685 C   0  0  0  0  0  0  0  0  0  0  0  0
    2.8603   -0.9174    0.4111 S   0  0  0  0  0  0  0  0  0  0  0  0
    4.1473    0.1014   -0.1297 C   0  0  0  0  0  0  0  0  0  0  0  0
    5.5444   -0.2856   -0.0092 C   0  0  0  0  0  0  0  0  0  0  0  0
    5.8696   -1.0842    1.0122 N   0  0  0  0  0  0  0  0  0  0  0  0
    7.1572   -1.4088    1.0628 C   0  0  0  0  0  0  0  0  0  0  0  0
    8.0976   -1.0129    0.2080 N   0  0  0  0  0  0  0  0  0  0  0  0
    7.6477   -0.2241   -0.7660 C   0  0  0  0  0  0  0  0  0  0  0  0
    6.3904    0.1726   -0.9336 N   0  0  0  0  0  0  0  0  0  0  0  0
    3.6424    1.2606   -0.6606 C   0  0  0  0  0  0  0  0  0  0  0  0
    4.4265    2.7342   -1.3709 S   0  0  0  0  0  0  0  0  0  0  0  0
    2.7886    3.3253   -1.6014 C   0  0  0  0  0  0  0  0  0  0  0  0
    1.7604    2.4817   -1.1706 C   0  0  0  0  0  0  0  0  0  0  0  0
    2.2464    1.2702   -0.6125 C   0  0  0  0  0  0  0  0  0  0  0  0
   -0.6307   -0.7397   -0.8665 C   0  0  0  0  0  0  0  0  0  0  0  0
   -0.2606   -1.1509   -2.0974 C   0  0  0  0  0  0  0  0  0  0  0  0
   -3.9289   -0.7370    1.2177 C   0  0  0  0  0  0  0  0  0  0  0  0
   -4.5675   -2.3194    1.6278 S   0  0  0  0  0  0  0  0  0  0  0  0
   -6.1342   -1.7096    2.0543 C   0  0  0  0  0  0  0  0  0  0  0  0
   -6.1122   -0.3768    1.8791 C   0  0  0  0  0  0  0  0  0  0  0  0
   -7.1402    0.4864    2.1012 O   0  0  0  0  0  0  0  0  0  0  0  0
   -6.5237    1.6750    1.7511 C   0  0  0  0  0  0  0  0  0  0  0  0
   -5.1917    1.5321    1.3397 C   0  0  0  0  0  0  0  0  0  0  0  0
   -4.9286    0.1535    1.4311 C   0  0  0  0  0  0  0  0  0  0  0  0
   -1.5259   -3.3452   -3.2760 H   0  0  0  0  0  0  0  0  0  0  0  0
   -2.0906   -1.0812   -4.2017 H   0  0  0  0  0  0  0  0  0  0  0  0
   -3.8191   -1.8046   -1.5348 H   0  0  0  0  0  0  0  0  0  0  0  0
   -2.0359    0.3424    2.6145 H   0  0  0  0  0  0  0  0  0  0  0  0
    0.2798    0.7254    2.0841 H   0  0  0  0  0  0  0  0  0  0  0  0
    7.4698   -2.0563    1.8760 H   0  0  0  0  0  0  0  0  0  0  0  0
    8.3741    0.1272   -1.4916 H   0  0  0  0  0  0  0  0  0  0  0  0
    2.6770    4.3009   -2.0567 H   0  0  0  0  0  0  0  0  0  0  0  0
    0.7133    2.7476   -1.2609 H   0  0  0  0  0  0  0  0  0  0  0  0
    0.7188   -1.0852   -2.5448 H   0  0  0  0  0  0  0  0  0  0  0  0
   -6.9482   -2.3323    2.3953 H   0  0  0  0  0  0  0  0  0  0  0  0
   -7.1633    2.5433    1.8454 H   0  0  0  0  0  0  0  0  0  0  0  0
   -4.5330    2.3274    1.0217 H   0  0  0  0  0  0  0  0  0  0  0  0
  1  2  1  0
  2  3  2  0
  3  4  1  0
  4  5  2  0
  5  6  1  0
  6  7  2  0
  7  8  1  0
  8  9  1  0
  9 10  1  0
 10 11  1  0
 11 12  2  0
 12 13  1  0
 13 14  2  0
 14 15  1  0
 15 16  2  0
 10 17  2  0
 17 18  1  0
 18 19  1  0
 19 20  2  0
 20 21  1  0
  7 22  1  0
 22 23  2  0
  4 24  1  0
 24 25  1  0
 25 26  1  0
 26 27  2  0
 27 28  1  0
 28 29  1  0
 29 30  2  0
 30 31  1  0
 23  1  1  0
 31 24  2  0
 22  3  1  0
 31 27  1  0
 21  8  2  0
 16 11  1  0
 21 17  1  0
  1 32  1  0
  1 33  1  0
  2 34  1  0
  5 35  1  0
  6 36  1  0
 13 37  1  0
 15 38  1  0
 19 39  1  0
 20 40  1  0
 23 41  1  0
 26 42  1  0
 29 43  1  0
 30 44  1  0
M  END
