
     RDKit          3D

 45 51  0  0  0  0  0  0  0  0999 V2000
    3.2125    0.8188    3.6262 Si  0  0  0  0  0  4  0  0  0  0  0  0
    4.2561    0.9996    2.0879 C   0  0  0  0  0  0  0  0  0  0  0  0
    3.5518    0.6948    0.9782 C   0  0  0  0  0  0  0  0  0  0  0  0
    4.0561    0.7339   -0.3986 C   0  0  0  0  0  0  0  0  0  0  0  0
    3.1852    0.4183   -1.3854 C   0  0  0  0  0  0  0  0  0  0  0  0
    1.7987    0.0302   -1.1331 C   0  0  0  0  0  0  0  0  0  0  0  0
    1.2639   -0.0391    0.1085 C   0  0  0  0  0  0  0  0  0  0  0  0
   -0.0933   -0.4475    0.2179 C   0  0  0  0  0  0  0  0  0  0  0  0
   -1.4341    0.5856   -0.1040 S   0  0  0  0  0  0  0  0  0  0  0  0
   -2.5967   -0.6303    0.2796 C   0  0  0  0  0  0  0  0  0  0  0  0
   -4.0075   -0.3784    0.2173 C   0  0  0  0  0  0  0  0  0  0  0  0
   -4.9990   -0.5647    1.6293 S   0  0  0  0  0  0  0  0  0  0  0  0
   -6.4394   -0.0941    0.8054 C   0  0  0  0  0  0  0  0  0  0  0  0
   -6.1453    0.1829   -0.4933 C   0  0  0  0  0  0  0  0  0  0  0  0
   -7.1121    0.7376   -2.0109 Si  0  0  0  0  0  4  0  0  0  0  0  0
   -5.4776    0.6779   -2.9984 C   0  0  0  0  0  0  0  0  0  0  0  0
   -4.4413    0.2978   -2.2188 C   0  0  0  0  0  0  0  0  0  0  0  0
   -4.7765    0.0271   -0.8494 C   0  0  0  0  0  0  0  0  0  0  0  0
   -1.9204   -1.7515    0.6347 C   0  0  0  0  0  0  0  0  0  0  0  0
   -2.3125   -3.0577    1.0346 C   0  0  0  0  0  0  0  0  0  0  0  0
   -1.2216   -3.8935    1.2961 C   0  0  0  0  0  0  0  0  0  0  0  0
    0.3715   -3.1865    1.0779 S   0  0  0  0  0  0  0  0  0  0  0  0
   -0.5253   -1.6864    0.6107 C   0  0  0  0  0  0  0  0  0  0  0  0
    2.1401    0.3043    1.2344 C   0  0  0  0  0  0  0  0  0  0  0  0
    1.7852    0.3140    2.5362 C   0  0  0  0  0  0  0  0  0  0  0  0
    5.3820    1.0880   -0.7873 C   0  0  0  0  0  0  0  0  0  0  0  0
    5.8680    2.2694   -1.3231 C   0  0  0  0  0  0  0  0  0  0  0  0
    7.2210    2.3049   -1.6043 N   0  0  0  0  0  0  0  0  0  0  0  0
    7.7553    1.1502   -1.2764 C   0  0  0  0  0  0  0  0  0  0  0  0
    6.6905   -0.0244   -0.6268 S   0  0  0  0  0  0  0  0  0  0  0  0
    2.9783    2.1168    4.3032 H   0  0  0  0  0  0  0  0  0  0  0  0
    3.6806   -0.2839    4.4998 H   0  0  0  0  0  0  0  0  0  0  0  0
    5.2860    1.3137    2.1482 H   0  0  0  0  0  0  0  0  0  0  0  0
    3.4898    0.4260   -2.4298 H   0  0  0  0  0  0  0  0  0  0  0  0
    1.2102   -0.2170   -2.0138 H   0  0  0  0  0  0  0  0  0  0  0  0
   -7.3864   -0.0562    1.3265 H   0  0  0  0  0  0  0  0  0  0  0  0
   -7.6330    2.1241   -1.9227 H   0  0  0  0  0  0  0  0  0  0  0  0
   -8.0752   -0.2735   -2.5135 H   0  0  0  0  0  0  0  0  0  0  0  0
   -5.4543    0.9267   -4.0471 H   0  0  0  0  0  0  0  0  0  0  0  0
   -3.4297    0.1985   -2.5955 H   0  0  0  0  0  0  0  0  0  0  0  0
   -3.3373   -3.3953    1.1332 H   0  0  0  0  0  0  0  0  0  0  0  0
   -1.2613   -4.9262    1.6152 H   0  0  0  0  0  0  0  0  0  0  0  0
    0.8212    0.0736    2.9558 H   0  0  0  0  0  0  0  0  0  0  0  0
    5.2661    3.1468   -1.5291 H   0  0  0  0  0  0  0  0  0  0  0  0
    8.8097    0.9449   -1.4068 H   0  0  0  0  0  0  0  0  0  0  0  0
  1  2  1  0
  2  3  2  0
  3  4  1  0
  4  5  2  0
  5  6  1  0
  6  7  2  0
  7  8  1  0
  8  9  1  0
  9 10  1  0
 10 11  1  0
 11 12  1  0
 12 13  1  0
 13 14  2  0
 14 15  1  0
 15 16  1  0
 16 17  2  0
 17 18  1  0
 10 19  2  0
 19 20  1  0
 20 21  2  0
 21 22  1  0
 22 23  1  0
  7 24  1  0
 24 25  2  0
  4 26  1  0
 26 27  2  0
 27 28  1  0
 28 29  2  0
 29 30  1  0
 25  1  1  0
 30 26  1  0
 24  3  1  0
 23  8  2  0
 18 11  2  0
 23 19  1  0
 18 14  1  0
  1 31  1  0
  1 32  1  0
  2 33  1  0
  5 34  1  0
  6 35  1  0
 13 36  1  0
 15 37  1  0
 15 38  1  0
 16 39  1  0
 17 40  1  0
 20 41  1  0
 21 42  1  0
 25 43  1  0
 27 44  1  0
 29 45  1  0
M  END
