
     RDKit          3D

 29 33  0  0  0  0  0  0  0  0999 V2000
   -4.1862    1.7476    0.7086 Si  0  0  0  0  0  4  0  0  0  0  0  0
   -4.3488   -0.0031    0.0455 C   0  0  0  0  0  0  0  0  0  0  0  0
   -3.1339   -0.5429   -0.1725 C   0  0  0  0  0  0  0  0  0  0  0  0
   -2.9006   -1.8975   -0.6893 C   0  0  0  0  0  0  0  0  0  0  0  0
   -1.6442   -2.3617   -0.8790 C   0  0  0  0  0  0  0  0  0  0  0  0
   -0.5825   -1.4733   -0.5531 C   0  0  0  0  0  0  0  0  0  0  0  0
    0.7446   -1.8002   -0.6914 N   0  0  0  0  0  0  0  0  0  0  0  0
    1.4767   -0.7074   -0.2844 C   0  0  0  0  0  0  0  0  0  0  0  0
    2.7551   -0.2019   -0.1063 C   0  0  0  0  0  0  0  0  0  0  0  0
    4.5516   -0.5518   -0.2585 Si  0  0  0  0  0  4  0  0  0  0  0  0
    4.8849    1.2200    0.4106 C   0  0  0  0  0  0  0  0  0  0  0  0
    3.7357    1.8808    0.6738 C   0  0  0  0  0  0  0  0  0  0  0  0
    2.5900    1.0831    0.3834 C   0  0  0  0  0  0  0  0  0  0  0  0
    1.2622    1.3924    0.5152 O   0  0  0  0  0  0  0  0  0  0  0  0
    0.6047    0.2700    0.0961 C   0  0  0  0  0  0  0  0  0  0  0  0
   -0.7051   -0.1816   -0.0613 C   0  0  0  0  0  0  0  0  0  0  0  0
   -1.9922    0.3623    0.1590 C   0  0  0  0  0  0  0  0  0  0  0  0
   -2.3306    1.5771    0.6239 C   0  0  0  0  0  0  0  0  0  0  0  0
   -4.6915    1.8635    2.0982 H   0  0  0  0  0  0  0  0  0  0  0  0
   -4.7166    2.7529   -0.2443 H   0  0  0  0  0  0  0  0  0  0  0  0
   -5.3122   -0.4580   -0.1168 H   0  0  0  0  0  0  0  0  0  0  0  0
   -3.7607   -2.5182   -0.9157 H   0  0  0  0  0  0  0  0  0  0  0  0
   -1.4585   -3.3594   -1.2597 H   0  0  0  0  0  0  0  0  0  0  0  0
    1.1478   -2.6659   -1.0245 H   0  0  0  0  0  0  0  0  0  0  0  0
    5.0451   -0.6880   -1.6514 H   0  0  0  0  0  0  0  0  0  0  0  0
    5.0702   -1.5745    0.6835 H   0  0  0  0  0  0  0  0  0  0  0  0
    5.8940    1.5783    0.5358 H   0  0  0  0  0  0  0  0  0  0  0  0
    3.6603    2.8889    1.0573 H   0  0  0  0  0  0  0  0  0  0  0  0
   -1.6590    2.3685    0.9172 H   0  0  0  0  0  0  0  0  0  0  0  0
  1  2  1  0
  2  3  2  0
  3  4  1  0
  4  5  2  0
  5  6  1  0
  6  7  1  0
  7  8  1  0
  8  9  1  0
  9 10  1  0
 10 11  1  0
 11 12  2  0
 12 13  1  0
 13 14  1  0
 14 15  1  0
 15 16  1  0
 16 17  1  0
 17 18  2  0
 18  1  1  0
 17  3  1  0
 16  6  2  0
 15  8  2  0
 13  9  2  0
  1 19  1  0
  1 20  1  0
  2 21  1  0
  4 22  1  0
  5 23  1  0
  7 24  1  0
 10 25  1  0
 10 26  1  0
 11 27  1  0
 12 28  1  0
 18 29  1  0
M  END
