
     RDKit          3D

 37 42  0  0  0  0  0  0  0  0999 V2000
    4.5151    1.9000   -0.7682 Si  0  0  0  0  0  4  0  0  0  0  0  0
    4.9458    0.2348   -0.0512 C   0  0  0  0  0  0  0  0  0  0  0  0
    3.8304   -0.4373    0.2901 C   0  0  0  0  0  0  0  0  0  0  0  0
    3.8275   -1.6928    1.0165 C   0  0  0  0  0  0  0  0  0  0  0  0
    2.6526   -2.1993    1.4343 C   0  0  0  0  0  0  0  0  0  0  0  0
    1.3963   -1.5437    1.0962 C   0  0  0  0  0  0  0  0  0  0  0  0
   -0.2408   -2.1649    1.7864 Si  0  0  0  0  0  4  0  0  0  0  0  0
   -1.1329   -0.8292    0.8070 C   0  0  0  0  0  0  0  0  0  0  0  0
   -0.1336   -0.1074    0.0525 C   0  0  0  0  0  0  0  0  0  0  0  0
    1.2856   -0.4282    0.3198 C   0  0  0  0  0  0  0  0  0  0  0  0
    2.5404    0.2458   -0.0252 C   0  0  0  0  0  0  0  0  0  0  0  0
    2.7101    1.4969   -0.4971 C   0  0  0  0  0  0  0  0  0  0  0  0
   -0.7460    0.7123   -0.8930 C   0  0  0  0  0  0  0  0  0  0  0  0
   -0.1994    1.3557   -1.9754 C   0  0  0  0  0  0  0  0  0  0  0  0
   -1.2132    2.0244   -2.6277 N   0  0  0  0  0  0  0  0  0  0  0  0
   -2.4220    1.7498   -2.0306 C   0  0  0  0  0  0  0  0  0  0  0  0
   -2.1673    0.9028   -0.9788 C   0  0  0  0  0  0  0  0  0  0  0  0
   -3.1251    0.2671   -0.1465 C   0  0  0  0  0  0  0  0  0  0  0  0
   -4.5241    0.4387   -0.1902 C   0  0  0  0  0  0  0  0  0  0  0  0
   -5.3151   -0.3086    0.6667 C   0  0  0  0  0  0  0  0  0  0  0  0
   -4.6846   -1.1974    1.5182 C   0  0  0  0  0  0  0  0  0  0  0  0
   -3.3433   -1.3854    1.5770 N   0  0  0  0  0  0  0  0  0  0  0  0
   -2.5451   -0.6620    0.7662 C   0  0  0  0  0  0  0  0  0  0  0  0
    4.9800    3.0246    0.0793 H   0  0  0  0  0  0  0  0  0  0  0  0
    4.8559    2.0093   -2.2078 H   0  0  0  0  0  0  0  0  0  0  0  0
    5.9675   -0.0633    0.1202 H   0  0  0  0  0  0  0  0  0  0  0  0
    4.7676   -2.1781    1.2521 H   0  0  0  0  0  0  0  0  0  0  0  0
    2.6357   -3.1236    2.0047 H   0  0  0  0  0  0  0  0  0  0  0  0
   -0.2951   -1.9801    3.2617 H   0  0  0  0  0  0  0  0  0  0  0  0
   -0.5162   -3.5498    1.3171 H   0  0  0  0  0  0  0  0  0  0  0  0
    1.9566    2.2405   -0.6870 H   0  0  0  0  0  0  0  0  0  0  0  0
    0.8015    1.3903   -2.3779 H   0  0  0  0  0  0  0  0  0  0  0  0
   -1.0915    2.5875   -3.4596 H   0  0  0  0  0  0  0  0  0  0  0  0
   -3.3380    2.1513   -2.4412 H   0  0  0  0  0  0  0  0  0  0  0  0
   -4.9802    1.1380   -0.8827 H   0  0  0  0  0  0  0  0  0  0  0  0
   -6.3941   -0.2080    0.6681 H   0  0  0  0  0  0  0  0  0  0  0  0
   -5.2610   -1.8107    2.2059 H   0  0  0  0  0  0  0  0  0  0  0  0
  1  2  1  0
  2  3  2  0
  3  4  1  0
  4  5  2  0
  5  6  1  0
  6  7  1  0
  7  8  1  0
  8  9  2  0
  9 10  1  0
 10 11  1  0
 11 12  2  0
  9 13  1  0
 13 14  2  0
 14 15  1  0
 15 16  1  0
 16 17  2  0
 17 18  1  0
 18 19  2  0
 19 20  1  0
 20 21  2  0
 21 22  1  0
 22 23  2  0
 12  1  1  0
 17 13  1  0
 23 18  1  0
 11  3  1  0
 10  6  2  0
 23  8  1  0
  1 24  1  0
  1 25  1  0
  2 26  1  0
  4 27  1  0
  5 28  1  0
  7 29  1  0
  7 30  1  0
 12 31  1  0
 14 32  1  0
 15 33  1  0
 16 34  1  0
 19 35  1  0
 20 36  1  0
 21 37  1  0
M  END
