
     RDKit          3D

 38 44  0  0  0  0  0  0  0  0999 V2000
    3.0944    1.0651    0.6596 Si  0  0  0  0  0  4  0  0  0  0  0  0
    3.4912   -0.5365   -0.4080 C   0  0  0  0  0  0  0  0  0  0  0  0
    2.3631   -1.1691   -0.8175 C   0  0  0  0  0  0  0  0  0  0  0  0
    1.2219   -0.4795   -0.3487 C   0  0  0  0  0  0  0  0  0  0  0  0
   -0.0940   -0.7905   -0.5431 N   0  0  0  0  0  0  0  0  0  0  0  0
   -0.8901    0.1604    0.0957 C   0  0  0  0  0  0  0  0  0  0  0  0
    0.0116    1.0511    0.6789 C   0  0  0  0  0  0  0  0  0  0  0  0
    1.2983    0.6628    0.4092 C   0  0  0  0  0  0  0  0  0  0  0  0
   -0.4635    2.1685    1.4251 C   0  0  0  0  0  0  0  0  0  0  0  0
    0.3537    3.0407    1.9967 N   0  0  0  0  0  0  0  0  0  0  0  0
   -0.7129    4.1112    2.7170 S   0  0  0  0  0  0  0  0  0  0  0  0
   -2.1782    3.4321    2.2794 N   0  0  0  0  0  0  0  0  0  0  0  0
   -1.9036    2.3293    1.5448 C   0  0  0  0  0  0  0  0  0  0  0  0
   -2.8543    1.4322    0.9578 C   0  0  0  0  0  0  0  0  0  0  0  0
   -4.2807    1.6501    1.1153 C   0  0  0  0  0  0  0  0  0  0  0  0
   -5.2749    0.8128    0.5684 C   0  0  0  0  0  0  0  0  0  0  0  0
   -4.7027   -0.2381   -0.1342 C   0  0  0  0  0  0  0  0  0  0  0  0
   -5.4088   -1.2194   -0.7791 C   0  0  0  0  0  0  0  0  0  0  0  0
   -4.4852   -2.0644   -1.3482 N   0  0  0  0  0  0  0  0  0  0  0  0
   -3.2021   -1.6295   -1.0712 C   0  0  0  0  0  0  0  0  0  0  0  0
   -3.3007   -0.4865   -0.3118 C   0  0  0  0  0  0  0  0  0  0  0  0
   -2.2832    0.3239    0.2169 C   0  0  0  0  0  0  0  0  0  0  0  0
    4.8450   -0.8790   -0.6485 C   0  0  0  0  0  0  0  0  0  0  0  0
    5.9006   -0.2112   -0.2149 N   0  0  0  0  0  0  0  0  0  0  0  0
    7.0756   -0.8080   -0.6228 C   0  0  0  0  0  0  0  0  0  0  0  0
    6.9284   -1.9461   -1.3776 C   0  0  0  0  0  0  0  0  0  0  0  0
    5.2671   -2.2847   -1.5866 S   0  0  0  0  0  0  0  0  0  0  0  0
    3.5343    2.2989   -0.0459 H   0  0  0  0  0  0  0  0  0  0  0  0
    3.5540    0.8968    2.0647 H   0  0  0  0  0  0  0  0  0  0  0  0
    2.3151   -2.0695   -1.4151 H   0  0  0  0  0  0  0  0  0  0  0  0
   -0.4386   -1.5809   -1.0650 H   0  0  0  0  0  0  0  0  0  0  0  0
   -4.6109    2.5157    1.6928 H   0  0  0  0  0  0  0  0  0  0  0  0
   -6.3339    0.9875    0.6939 H   0  0  0  0  0  0  0  0  0  0  0  0
   -6.4693   -1.4008   -0.8899 H   0  0  0  0  0  0  0  0  0  0  0  0
   -4.7128   -2.8869   -1.8920 H   0  0  0  0  0  0  0  0  0  0  0  0
   -2.3711   -2.1976   -1.4555 H   0  0  0  0  0  0  0  0  0  0  0  0
    8.0215   -0.3644   -0.3371 H   0  0  0  0  0  0  0  0  0  0  0  0
    7.6958   -2.5757   -1.8034 H   0  0  0  0  0  0  0  0  0  0  0  0
  1  2  1  0
  2  3  2  0
  3  4  1  0
  4  5  1  0
  5  6  1  0
  6  7  2  0
  7  8  1  0
  7  9  1  0
  9 10  2  0
 10 11  1  0
 11 12  1  0
 12 13  2  0
 13 14  1  0
 14 15  1  0
 15 16  2  0
 16 17  1  0
 17 18  2  0
 18 19  1  0
 19 20  1  0
 20 21  2  0
 21 22  1  0
  2 23  1  0
 23 24  2  0
 24 25  1  0
 25 26  2  0
 26 27  1  0
  8  1  1  0
 13  9  1  0
 22 14  2  0
 27 23  1  0
  8  4  2  0
 21 17  1  0
 22  6  1  0
  1 28  1  0
  1 29  1  0
  3 30  1  0
  5 31  1  0
 15 32  1  0
 16 33  1  0
 18 34  1  0
 19 35  1  0
 20 36  1  0
 25 37  1  0
 26 38  1  0
M  END
