
     RDKit          3D

 34 39  0  0  0  0  0  0  0  0999 V2000
    4.0551    1.3600    0.5098 Si  0  0  0  0  0  4  0  0  0  0  0  0
    5.0802   -0.2253    0.2968 C   0  0  0  0  0  0  0  0  0  0  0  0
    4.2881   -1.2893    0.0555 C   0  0  0  0  0  0  0  0  0  0  0  0
    2.8822   -0.9582    0.0209 C   0  0  0  0  0  0  0  0  0  0  0  0
    1.4407   -2.0584   -0.2697 Si  0  0  0  0  0  4  0  0  0  0  0  0
    0.2588   -0.5371   -0.0781 C   0  0  0  0  0  0  0  0  0  0  0  0
    1.1265    0.5957    0.1800 C   0  0  0  0  0  0  0  0  0  0  0  0
    2.5557    0.3386    0.2291 C   0  0  0  0  0  0  0  0  0  0  0  0
    0.4043    1.7694    0.3399 C   0  0  0  0  0  0  0  0  0  0  0  0
    0.8575    3.0383    0.5945 C   0  0  0  0  0  0  0  0  0  0  0  0
   -0.1963    3.9027    0.6777 O   0  0  0  0  0  0  0  0  0  0  0  0
   -1.3347    3.1797    0.4743 C   0  0  0  0  0  0  0  0  0  0  0  0
   -1.0241    1.8585    0.2610 C   0  0  0  0  0  0  0  0  0  0  0  0
   -1.9217    0.7881    0.0122 C   0  0  0  0  0  0  0  0  0  0  0  0
   -3.3553    0.9865   -0.0477 C   0  0  0  0  0  0  0  0  0  0  0  0
   -4.2730   -0.0425   -0.2905 C   0  0  0  0  0  0  0  0  0  0  0  0
   -3.6377   -1.2655   -0.4648 C   0  0  0  0  0  0  0  0  0  0  0  0
   -4.3758   -2.3974   -0.7138 C   0  0  0  0  0  0  0  0  0  0  0  0
   -3.3703   -3.7681   -0.8896 S   0  0  0  0  0  0  0  0  0  0  0  0
   -1.9469   -2.8367   -0.6307 C   0  0  0  0  0  0  0  0  0  0  0  0
   -2.2033   -1.5017   -0.4116 C   0  0  0  0  0  0  0  0  0  0  0  0
   -1.2107   -0.4814   -0.1655 C   0  0  0  0  0  0  0  0  0  0  0  0
    4.1605    1.9000    1.8877 H   0  0  0  0  0  0  0  0  0  0  0  0
    4.3240    2.3367   -0.5741 H   0  0  0  0  0  0  0  0  0  0  0  0
    6.1559   -0.2101    0.3709 H   0  0  0  0  0  0  0  0  0  0  0  0
    4.6615   -2.2944   -0.0979 H   0  0  0  0  0  0  0  0  0  0  0  0
    1.3802   -2.6177   -1.6445 H   0  0  0  0  0  0  0  0  0  0  0  0
    1.2177   -3.0531    0.8108 H   0  0  0  0  0  0  0  0  0  0  0  0
    1.8221    3.4996    0.7399 H   0  0  0  0  0  0  0  0  0  0  0  0
   -2.2497    3.7527    0.5152 H   0  0  0  0  0  0  0  0  0  0  0  0
   -3.7625    1.9856    0.1022 H   0  0  0  0  0  0  0  0  0  0  0  0
   -5.3415    0.1234   -0.3319 H   0  0  0  0  0  0  0  0  0  0  0  0
   -5.4487   -2.5008   -0.8032 H   0  0  0  0  0  0  0  0  0  0  0  0
   -1.0189   -3.3777   -0.6648 H   0  0  0  0  0  0  0  0  0  0  0  0
  1  2  1  0
  2  3  2  0
  3  4  1  0
  4  5  1  0
  5  6  1  0
  6  7  2  0
  7  8  1  0
  7  9  1  0
  9 10  2  0
 10 11  1  0
 11 12  1  0
 12 13  2  0
 13 14  1  0
 14 15  1  0
 15 16  2  0
 16 17  1  0
 17 18  2  0
 18 19  1  0
 19 20  1  0
 20 21  2  0
 21 22  1  0
  8  1  1  0
 13  9  1  0
 22 14  2  0
  8  4  2  0
 21 17  1  0
 22  6  1  0
  1 23  1  0
  1 24  1  0
  2 25  1  0
  3 26  1  0
  5 27  1  0
  5 28  1  0
 10 29  1  0
 12 30  1  0
 15 31  1  0
 16 32  1  0
 18 33  1  0
 20 34  1  0
M  END
