
     RDKit          3D

 47 53  0  0  0  0  0  0  0  0999 V2000
   -0.4215    3.2583   -1.0134 Si  0  0  0  0  0  4  0  0  0  0  0  0
   -2.3140    3.3984   -1.3092 C   0  0  0  0  0  0  0  0  0  0  0  0
   -2.9254    2.2043   -1.1544 C   0  0  0  0  0  0  0  0  0  0  0  0
   -2.0547    1.1190   -0.8117 C   0  0  0  0  0  0  0  0  0  0  0  0
   -0.6716    1.4171   -0.6760 C   0  0  0  0  0  0  0  0  0  0  0  0
    0.1359    0.3620   -0.3473 C   0  0  0  0  0  0  0  0  0  0  0  0
   -0.8610   -1.0513   -0.2036 S   0  0  0  0  0  0  0  0  0  0  0  0
   -2.3201   -0.2066   -0.5785 C   0  0  0  0  0  0  0  0  0  0  0  0
   -3.5897   -0.9385   -0.6059 C   0  0  0  0  0  0  0  0  0  0  0  0
   -3.8929   -1.6832   -1.7579 C   0  0  0  0  0  0  0  0  0  0  0  0
   -5.0908   -2.3827   -1.8546 C   0  0  0  0  0  0  0  0  0  0  0  0
   -6.0016   -2.3429   -0.8020 C   0  0  0  0  0  0  0  0  0  0  0  0
   -5.7302   -1.6063    0.3615 C   0  0  0  0  0  0  0  0  0  0  0  0
   -6.6632   -1.5784    1.4117 C   0  0  0  0  0  0  0  0  0  0  0  0
   -6.4131   -0.8547    2.5767 C   0  0  0  0  0  0  0  0  0  0  0  0
   -5.2247   -0.1495    2.7085 C   0  0  0  0  0  0  0  0  0  0  0  0
   -4.2869   -0.1672    1.6740 C   0  0  0  0  0  0  0  0  0  0  0  0
   -4.5120   -0.8896    0.4771 C   0  0  0  0  0  0  0  0  0  0  0  0
    1.5677    0.3579   -0.1428 C   0  0  0  0  0  0  0  0  0  0  0  0
    2.2810    1.4605   -0.2661 N   0  0  0  0  0  0  0  0  0  0  0  0
    3.6141    1.1894   -0.0206 C   0  0  0  0  0  0  0  0  0  0  0  0
    3.9266   -0.1206    0.2902 C   0  0  0  0  0  0  0  0  0  0  0  0
    2.4772   -1.0409    0.2725 S   0  0  0  0  0  0  0  0  0  0  0  0
    5.2233   -0.6729    0.5758 C   0  0  0  0  0  0  0  0  0  0  0  0
    5.4666   -2.1444    1.4881 S   0  0  0  0  0  0  0  0  0  0  0  0
    7.1954   -2.0712    1.3890 C   0  0  0  0  0  0  0  0  0  0  0  0
    7.5196   -0.9680    0.6881 C   0  0  0  0  0  0  0  0  0  0  0  0
    8.7777   -0.5418    0.3774 N   0  0  0  0  0  0  0  0  0  0  0  0
    8.4995    0.6147   -0.3467 C   0  0  0  0  0  0  0  0  0  0  0  0
    7.1102    0.8431   -0.4470 C   0  0  0  0  0  0  0  0  0  0  0  0
    6.4553   -0.2113    0.2487 C   0  0  0  0  0  0  0  0  0  0  0  0
    0.2978    3.5729   -2.2739 H   0  0  0  0  0  0  0  0  0  0  0  0
   -0.0493    4.0678    0.1746 H   0  0  0  0  0  0  0  0  0  0  0  0
   -2.7633    4.3446   -1.5630 H   0  0  0  0  0  0  0  0  0  0  0  0
   -3.9942    2.0652   -1.2756 H   0  0  0  0  0  0  0  0  0  0  0  0
   -3.1901   -1.7157   -2.5881 H   0  0  0  0  0  0  0  0  0  0  0  0
   -5.3157   -2.9572   -2.7492 H   0  0  0  0  0  0  0  0  0  0  0  0
   -6.9335   -2.8966   -0.8969 H   0  0  0  0  0  0  0  0  0  0  0  0
   -7.5997   -2.1261    1.3295 H   0  0  0  0  0  0  0  0  0  0  0  0
   -7.1455   -0.8450    3.3795 H   0  0  0  0  0  0  0  0  0  0  0  0
   -5.0209    0.4145    3.6149 H   0  0  0  0  0  0  0  0  0  0  0  0
   -3.3647    0.3932    1.8146 H   0  0  0  0  0  0  0  0  0  0  0  0
    4.3245    2.0049   -0.0762 H   0  0  0  0  0  0  0  0  0  0  0  0
    7.8358   -2.8186    1.8357 H   0  0  0  0  0  0  0  0  0  0  0  0
    9.6613   -0.9740    0.6188 H   0  0  0  0  0  0  0  0  0  0  0  0
    9.3228    1.1935   -0.7458 H   0  0  0  0  0  0  0  0  0  0  0  0
    6.6579    1.6738   -0.9720 H   0  0  0  0  0  0  0  0  0  0  0  0
  1  2  1  0
  2  3  2  0
  3  4  1  0
  4  5  1  0
  5  6  2  0
  6  7  1  0
  7  8  1  0
  8  9  1  0
  9 10  2  0
 10 11  1  0
 11 12  2  0
 12 13  1  0
 13 14  2  0
 14 15  1  0
 15 16  2  0
 16 17  1  0
 17 18  2  0
  6 19  1  0
 19 20  2  0
 20 21  1  0
 21 22  2  0
 22 23  1  0
 22 24  1  0
 24 25  1  0
 25 26  1  0
 26 27  2  0
 27 28  1  0
 28 29  1  0
 29 30  2  0
 30 31  1  0
  5  1  1  0
 18  9  1  0
 23 19  1  0
 31 24  2  0
  8  4  2  0
 18 13  1  0
 31 27  1  0
  1 32  1  0
  1 33  1  0
  2 34  1  0
  3 35  1  0
 10 36  1  0
 11 37  1  0
 12 38  1  0
 14 39  1  0
 15 40  1  0
 16 41  1  0
 17 42  1  0
 21 43  1  0
 26 44  1  0
 28 45  1  0
 29 46  1  0
 30 47  1  0
M  END
