
     RDKit          3D

 36 42  0  0  0  0  0  0  0  0999 V2000
   -0.7695   -2.1196    0.8494 Si  0  0  0  0  0  4  0  0  0  0  0  0
   -1.9445   -0.6019    0.7353 C   0  0  0  0  0  0  0  0  0  0  0  0
   -1.2575    0.5385    0.4840 C   0  0  0  0  0  0  0  0  0  0  0  0
    0.1472    0.3045    0.3992 C   0  0  0  0  0  0  0  0  0  0  0  0
    1.1620    1.1972    0.1750 O   0  0  0  0  0  0  0  0  0  0  0  0
    2.2967    0.4402    0.1912 C   0  0  0  0  0  0  0  0  0  0  0  0
    2.0180   -0.8762    0.4159 C   0  0  0  0  0  0  0  0  0  0  0  0
    3.2082   -1.5784    0.4190 N   0  0  0  0  0  0  0  0  0  0  0  0
    4.2499   -0.6875    0.1928 C   0  0  0  0  0  0  0  0  0  0  0  0
    5.6404   -0.8626    0.0985 C   0  0  0  0  0  0  0  0  0  0  0  0
    6.4581    0.2665   -0.1443 C   0  0  0  0  0  0  0  0  0  0  0  0
    5.8331    1.5375   -0.2830 C   0  0  0  0  0  0  0  0  0  0  0  0
    6.4544    2.7107   -0.5152 N   0  0  0  0  0  0  0  0  0  0  0  0
    5.2506    3.8809   -0.5880 S   0  0  0  0  0  0  0  0  0  0  0  0
    3.8817    2.9460   -0.3269 N   0  0  0  0  0  0  0  0  0  0  0  0
    4.3928    1.7359   -0.1878 C   0  0  0  0  0  0  0  0  0  0  0  0
    3.6638    0.5535    0.0551 C   0  0  0  0  0  0  0  0  0  0  0  0
    0.6425   -0.9800    0.5516 C   0  0  0  0  0  0  0  0  0  0  0  0
   -3.3601   -0.6871    0.8231 C   0  0  0  0  0  0  0  0  0  0  0  0
   -4.1172   -1.6172    2.0820 S   0  0  0  0  0  0  0  0  0  0  0  0
   -5.7016   -1.2272    1.5665 C   0  0  0  0  0  0  0  0  0  0  0  0
   -5.6806   -0.4075    0.4710 C   0  0  0  0  0  0  0  0  0  0  0  0
   -6.8138    0.0471   -0.1325 N   0  0  0  0  0  0  0  0  0  0  0  0
   -6.5057    0.8405   -1.1949 C   0  0  0  0  0  0  0  0  0  0  0  0
   -5.2085    1.1506   -1.6199 C   0  0  0  0  0  0  0  0  0  0  0  0
   -4.0640    0.7056   -1.0342 N   0  0  0  0  0  0  0  0  0  0  0  0
   -4.3387   -0.0917    0.0415 C   0  0  0  0  0  0  0  0  0  0  0  0
   -0.7650   -2.7276    2.2051 H   0  0  0  0  0  0  0  0  0  0  0  0
   -1.0039   -3.0909   -0.2500 H   0  0  0  0  0  0  0  0  0  0  0  0
   -1.6846    1.5229    0.3441 H   0  0  0  0  0  0  0  0  0  0  0  0
    3.2758   -2.5773    0.5648 H   0  0  0  0  0  0  0  0  0  0  0  0
    6.0911   -1.8456    0.2086 H   0  0  0  0  0  0  0  0  0  0  0  0
    7.5359    0.1740   -0.2240 H   0  0  0  0  0  0  0  0  0  0  0  0
   -6.5664   -1.6114    2.0875 H   0  0  0  0  0  0  0  0  0  0  0  0
   -7.3634    1.2433   -1.7266 H   0  0  0  0  0  0  0  0  0  0  0  0
   -5.0572    1.7944   -2.4821 H   0  0  0  0  0  0  0  0  0  0  0  0
  1  2  1  0
  2  3  2  0
  3  4  1  0
  4  5  1  0
  5  6  1  0
  6  7  2  0
  7  8  1  0
  8  9  1  0
  9 10  1  0
 10 11  2  0
 11 12  1  0
 12 13  2  0
 13 14  1  0
 14 15  1  0
 15 16  2  0
 16 17  1  0
  7 18  1  0
  2 19  1  0
 19 20  1  0
 20 21  1  0
 21 22  2  0
 22 23  1  0
 23 24  2  0
 24 25  1  0
 25 26  2  0
 26 27  1  0
 18  1  1  0
 27 19  2  0
 18  4  2  0
 27 22  1  0
 17  6  1  0
 17  9  2  0
 16 12  1  0
  1 28  1  0
  1 29  1  0
  3 30  1  0
  8 31  1  0
 10 32  1  0
 11 33  1  0
 21 34  1  0
 24 35  1  0
 25 36  1  0
M  END
