
     RDKit          3D

 46 52  0  0  0  0  0  0  0  0999 V2000
   -3.4027   -2.4614    1.1845 Si  0  0  0  0  0  4  0  0  0  0  0  0
   -1.7798   -3.2029    1.8764 C   0  0  0  0  0  0  0  0  0  0  0  0
   -0.7043   -2.4766    1.4976 C   0  0  0  0  0  0  0  0  0  0  0  0
   -0.9992   -1.3409    0.6716 C   0  0  0  0  0  0  0  0  0  0  0  0
   -2.3682   -1.1144    0.3632 C   0  0  0  0  0  0  0  0  0  0  0  0
   -2.6135   -0.0283   -0.4248 C   0  0  0  0  0  0  0  0  0  0  0  0
   -1.1147    0.7273   -0.8280 S   0  0  0  0  0  0  0  0  0  0  0  0
   -0.1781   -0.4040    0.0910 C   0  0  0  0  0  0  0  0  0  0  0  0
    1.2623   -0.2517    0.1351 C   0  0  0  0  0  0  0  0  0  0  0  0
    2.1083   -0.4894   -0.9440 C   0  0  0  0  0  0  0  0  0  0  0  0
    3.4721   -0.3659   -0.9664 N   0  0  0  0  0  0  0  0  0  0  0  0
    4.1829    0.0660    0.1413 C   0  0  0  0  0  0  0  0  0  0  0  0
    5.6395    0.1886    0.0296 C   0  0  0  0  0  0  0  0  0  0  0  0
    6.3734   -0.6454   -0.8200 C   0  0  0  0  0  0  0  0  0  0  0  0
    7.7566   -0.4943   -0.9059 C   0  0  0  0  0  0  0  0  0  0  0  0
    8.3794    0.4919   -0.1517 C   0  0  0  0  0  0  0  0  0  0  0  0
    7.5885    1.2909    0.6564 C   0  0  0  0  0  0  0  0  0  0  0  0
    6.2471    1.1629    0.7582 N   0  0  0  0  0  0  0  0  0  0  0  0
    3.4362    0.3423    1.3250 C   0  0  0  0  0  0  0  0  0  0  0  0
    3.8889    0.7318    2.5342 N   0  0  0  0  0  0  0  0  0  0  0  0
    2.5786    0.9097    3.5230 S   0  0  0  0  0  0  0  0  0  0  0  0
    1.3571    0.4941    2.4887 N   0  0  0  0  0  0  0  0  0  0  0  0
    1.9289    0.1771    1.3089 C   0  0  0  0  0  0  0  0  0  0  0  0
   -3.8526    0.5221   -0.9235 C   0  0  0  0  0  0  0  0  0  0  0  0
   -4.2924    0.4578   -2.2688 C   0  0  0  0  0  0  0  0  0  0  0  0
   -5.5463    1.0003   -2.7301 C   0  0  0  0  0  0  0  0  0  0  0  0
   -6.4860    1.6600   -1.8993 C   0  0  0  0  0  0  0  0  0  0  0  0
   -6.0214    1.7164   -0.5917 C   0  0  0  0  0  0  0  0  0  0  0  0
   -6.6388    2.2984    0.4819 C   0  0  0  0  0  0  0  0  0  0  0  0
   -5.8523    2.1524    1.5940 O   0  0  0  0  0  0  0  0  0  0  0  0
   -4.7233    1.4746    1.2181 C   0  0  0  0  0  0  0  0  0  0  0  0
   -4.7848    1.1833   -0.1219 C   0  0  0  0  0  0  0  0  0  0  0  0
   -4.0404   -3.3998    0.2248 H   0  0  0  0  0  0  0  0  0  0  0  0
   -4.2694   -1.9772    2.2881 H   0  0  0  0  0  0  0  0  0  0  0  0
   -1.7948   -4.0887    2.4928 H   0  0  0  0  0  0  0  0  0  0  0  0
    0.3078   -2.7255    1.7958 H   0  0  0  0  0  0  0  0  0  0  0  0
    1.6891   -0.8117   -1.8976 H   0  0  0  0  0  0  0  0  0  0  0  0
    5.8736   -1.4111   -1.4088 H   0  0  0  0  0  0  0  0  0  0  0  0
    8.3383   -1.1426   -1.5574 H   0  0  0  0  0  0  0  0  0  0  0  0
    9.4530    0.6372   -0.1937 H   0  0  0  0  0  0  0  0  0  0  0  0
    8.0241    2.0806    1.2646 H   0  0  0  0  0  0  0  0  0  0  0  0
   -3.6505   -0.0273   -3.0070 H   0  0  0  0  0  0  0  0  0  0  0  0
   -5.7818    0.8973   -3.7916 H   0  0  0  0  0  0  0  0  0  0  0  0
   -7.4203    2.0665   -2.2599 H   0  0  0  0  0  0  0  0  0  0  0  0
   -7.5681    2.8280    0.6357 H   0  0  0  0  0  0  0  0  0  0  0  0
   -4.0020    1.3013    2.0056 H   0  0  0  0  0  0  0  0  0  0  0  0
  1  2  1  0
  2  3  2  0
  3  4  1  0
  4  5  1  0
  5  6  2  0
  6  7  1  0
  7  8  1  0
  8  9  1  0
  9 10  2  0
 10 11  1  0
 11 12  2  0
 12 13  1  0
 13 14  2  0
 14 15  1  0
 15 16  2  0
 16 17  1  0
 17 18  2  0
 12 19  1  0
 19 20  2  0
 20 21  1  0
 21 22  1  0
 22 23  2  0
  6 24  1  0
 24 25  2  0
 25 26  1  0
 26 27  2  0
 27 28  1  0
 28 29  2  0
 29 30  1  0
 30 31  1  0
 31 32  2  0
  5  1  1  0
 23  9  1  0
 32 24  1  0
  8  4  2  0
 18 13  1  0
 23 19  1  0
 32 28  1  0
  1 33  1  0
  1 34  1  0
  2 35  1  0
  3 36  1  0
 10 37  1  0
 14 38  1  0
 15 39  1  0
 16 40  1  0
 17 41  1  0
 25 42  1  0
 26 43  1  0
 27 44  1  0
 29 45  1  0
 31 46  1  0
M  END
