
     RDKit          3D

 42 47  0  0  0  0  0  0  0  0999 V2000
    1.3009   -3.5307    1.1969 Si  0  0  0  0  0  4  0  0  0  0  0  0
    3.2015   -3.3869    1.3185 C   0  0  0  0  0  0  0  0  0  0  0  0
    3.6402   -2.2221    0.7953 C   0  0  0  0  0  0  0  0  0  0  0  0
    2.6137   -1.3684    0.2695 C   0  0  0  0  0  0  0  0  0  0  0  0
    1.2724   -1.8442    0.3520 C   0  0  0  0  0  0  0  0  0  0  0  0
    0.3239   -0.9993   -0.1468 C   0  0  0  0  0  0  0  0  0  0  0  0
    1.1104    0.4279   -0.7364 S   0  0  0  0  0  0  0  0  0  0  0  0
    2.6899   -0.1233   -0.3051 C   0  0  0  0  0  0  0  0  0  0  0  0
    3.8443    0.7010   -0.6070 C   0  0  0  0  0  0  0  0  0  0  0  0
    4.8472    0.3300   -1.5074 C   0  0  0  0  0  0  0  0  0  0  0  0
    5.9777    1.0377   -1.8378 N   0  0  0  0  0  0  0  0  0  0  0  0
    6.2286    2.2535   -1.2686 C   0  0  0  0  0  0  0  0  0  0  0  0
    5.3031    2.7544   -0.3306 C   0  0  0  0  0  0  0  0  0  0  0  0
    5.3883    3.9195    0.3318 N   0  0  0  0  0  0  0  0  0  0  0  0
    4.0491    4.0002    1.3091 S   0  0  0  0  0  0  0  0  0  0  0  0
    3.3060    2.5661    0.9365 N   0  0  0  0  0  0  0  0  0  0  0  0
    4.0722    1.9529    0.0149 C   0  0  0  0  0  0  0  0  0  0  0  0
   -1.1010   -1.1479   -0.2285 C   0  0  0  0  0  0  0  0  0  0  0  0
   -1.8877   -2.2757   -0.3451 C   0  0  0  0  0  0  0  0  0  0  0  0
   -3.2421   -1.8578   -0.3722 C   0  0  0  0  0  0  0  0  0  0  0  0
   -3.2713   -0.4766   -0.2876 C   0  0  0  0  0  0  0  0  0  0  0  0
   -1.9575   -0.0709   -0.1991 N   0  0  0  0  0  0  0  0  0  0  0  0
   -4.3991    0.4569   -0.2676 C   0  0  0  0  0  0  0  0  0  0  0  0
   -5.6098    0.0901    0.3357 C   0  0  0  0  0  0  0  0  0  0  0  0
   -6.6915    0.9744    0.3636 C   0  0  0  0  0  0  0  0  0  0  0  0
   -6.5764    2.2358   -0.2156 C   0  0  0  0  0  0  0  0  0  0  0  0
   -5.3815    2.6125   -0.8242 C   0  0  0  0  0  0  0  0  0  0  0  0
   -4.2991    1.7282   -0.8507 C   0  0  0  0  0  0  0  0  0  0  0  0
    0.6950   -3.5533    2.5513 H   0  0  0  0  0  0  0  0  0  0  0  0
    0.9165   -4.6583    0.3108 H   0  0  0  0  0  0  0  0  0  0  0  0
    3.7891   -4.1702    1.7696 H   0  0  0  0  0  0  0  0  0  0  0  0
    4.6883   -1.9449    0.7805 H   0  0  0  0  0  0  0  0  0  0  0  0
    4.7673   -0.6200   -2.0376 H   0  0  0  0  0  0  0  0  0  0  0  0
    7.1306    2.7736   -1.5627 H   0  0  0  0  0  0  0  0  0  0  0  0
   -1.5404   -3.2969   -0.4204 H   0  0  0  0  0  0  0  0  0  0  0  0
   -4.1078   -2.5014   -0.4635 H   0  0  0  0  0  0  0  0  0  0  0  0
   -1.6536    0.8875   -0.0986 H   0  0  0  0  0  0  0  0  0  0  0  0
   -5.7183   -0.8863    0.8017 H   0  0  0  0  0  0  0  0  0  0  0  0
   -7.6223    0.6765    0.8390 H   0  0  0  0  0  0  0  0  0  0  0  0
   -7.4181    2.9230   -0.1957 H   0  0  0  0  0  0  0  0  0  0  0  0
   -5.2920    3.5930   -1.2846 H   0  0  0  0  0  0  0  0  0  0  0  0
   -3.3864    2.0403   -1.3516 H   0  0  0  0  0  0  0  0  0  0  0  0
  1  2  1  0
  2  3  2  0
  3  4  1  0
  4  5  1  0
  5  6  2  0
  6  7  1  0
  7  8  1  0
  8  9  1  0
  9 10  2  0
 10 11  1  0
 11 12  2  0
 12 13  1  0
 13 14  2  0
 14 15  1  0
 15 16  1  0
 16 17  2  0
  6 18  1  0
 18 19  2  0
 19 20  1  0
 20 21  2  0
 21 22  1  0
 21 23  1  0
 23 24  2  0
 24 25  1  0
 25 26  2  0
 26 27  1  0
 27 28  2  0
  5  1  1  0
 17  9  1  0
 22 18  1  0
 28 23  1  0
  8  4  2  0
 17 13  1  0
  1 29  1  0
  1 30  1  0
  2 31  1  0
  3 32  1  0
 10 33  1  0
 12 34  1  0
 19 35  1  0
 20 36  1  0
 22 37  1  0
 24 38  1  0
 25 39  1  0
 26 40  1  0
 27 41  1  0
 28 42  1  0
M  END
