
     RDKit          3D

 46 52  0  0  0  0  0  0  0  0999 V2000
    1.9564    1.7060    2.3782 Si  0  0  0  0  0  4  0  0  0  0  0  0
    3.8355    1.9293    2.6564 C   0  0  0  0  0  0  0  0  0  0  0  0
    4.5580    1.1520    1.8200 C   0  0  0  0  0  0  0  0  0  0  0  0
    3.7874    0.3431    0.9176 C   0  0  0  0  0  0  0  0  0  0  0  0
    2.3729    0.4542    1.0329 C   0  0  0  0  0  0  0  0  0  0  0  0
    1.6559   -0.3386    0.1886 C   0  0  0  0  0  0  0  0  0  0  0  0
    2.7422   -1.2659   -0.7750 S   0  0  0  0  0  0  0  0  0  0  0  0
    4.1578   -0.5590   -0.0555 C   0  0  0  0  0  0  0  0  0  0  0  0
    5.4652   -0.9518   -0.5065 C   0  0  0  0  0  0  0  0  0  0  0  0
    5.9406   -2.2291   -0.7479 C   0  0  0  0  0  0  0  0  0  0  0  0
    7.2470   -2.3205   -1.1949 N   0  0  0  0  0  0  0  0  0  0  0  0
    7.7446   -1.1096   -1.3052 C   0  0  0  0  0  0  0  0  0  0  0  0
    6.7014    0.1817   -0.8819 S   0  0  0  0  0  0  0  0  0  0  0  0
    0.2094   -0.4966    0.0255 C   0  0  0  0  0  0  0  0  0  0  0  0
   -0.4071   -1.5376    0.7277 C   0  0  0  0  0  0  0  0  0  0  0  0
   -1.7817   -1.7235    0.6465 C   0  0  0  0  0  0  0  0  0  0  0  0
   -2.5862   -0.8744   -0.1339 C   0  0  0  0  0  0  0  0  0  0  0  0
   -4.0276   -1.1300   -0.1703 C   0  0  0  0  0  0  0  0  0  0  0  0
   -4.6092   -1.5023   -1.3593 N   0  0  0  0  0  0  0  0  0  0  0  0
   -5.9496   -1.7690   -1.4466 C   0  0  0  0  0  0  0  0  0  0  0  0
   -6.8879   -1.7127   -0.4220 C   0  0  0  0  0  0  0  0  0  0  0  0
   -6.3399   -1.3374    0.8185 C   0  0  0  0  0  0  0  0  0  0  0  0
   -7.0282   -1.2098    1.9641 N   0  0  0  0  0  0  0  0  0  0  0  0
   -5.9330   -0.7505    3.1236 S   0  0  0  0  0  0  0  0  0  0  0  0
   -4.5377   -0.6984    2.2287 N   0  0  0  0  0  0  0  0  0  0  0  0
   -4.8720   -1.0359    0.9688 C   0  0  0  0  0  0  0  0  0  0  0  0
   -1.9750    0.1930   -0.8590 C   0  0  0  0  0  0  0  0  0  0  0  0
   -2.7194    1.0957   -1.6593 C   0  0  0  0  0  0  0  0  0  0  0  0
   -2.1192    2.1412   -2.3617 C   0  0  0  0  0  0  0  0  0  0  0  0
   -0.7492    2.3187   -2.2868 C   0  0  0  0  0  0  0  0  0  0  0  0
    0.0148    1.4515   -1.5076 C   0  0  0  0  0  0  0  0  0  0  0  0
   -0.5651    0.3832   -0.7784 C   0  0  0  0  0  0  0  0  0  0  0  0
    1.3212    1.1179    3.5836 H   0  0  0  0  0  0  0  0  0  0  0  0
    1.3571    2.9675    1.8769 H   0  0  0  0  0  0  0  0  0  0  0  0
    4.2050    2.6043    3.4114 H   0  0  0  0  0  0  0  0  0  0  0  0
    5.6413    1.1317    1.8371 H   0  0  0  0  0  0  0  0  0  0  0  0
    5.3733   -3.1417   -0.6071 H   0  0  0  0  0  0  0  0  0  0  0  0
    8.7563   -0.9307   -1.6451 H   0  0  0  0  0  0  0  0  0  0  0  0
    0.1843   -2.2102    1.3458 H   0  0  0  0  0  0  0  0  0  0  0  0
   -2.2301   -2.5458    1.2020 H   0  0  0  0  0  0  0  0  0  0  0  0
   -6.2703   -2.0529   -2.4493 H   0  0  0  0  0  0  0  0  0  0  0  0
   -7.9355   -1.9367   -0.5619 H   0  0  0  0  0  0  0  0  0  0  0  0
   -3.7983    0.9894   -1.7547 H   0  0  0  0  0  0  0  0  0  0  0  0
   -2.7261    2.8074   -2.9687 H   0  0  0  0  0  0  0  0  0  0  0  0
   -0.2692    3.1252   -2.8342 H   0  0  0  0  0  0  0  0  0  0  0  0
    1.0899    1.6200   -1.4811 H   0  0  0  0  0  0  0  0  0  0  0  0
  1  2  1  0
  2  3  2  0
  3  4  1  0
  4  5  1  0
  5  6  2  0
  6  7  1  0
  7  8  1  0
  8  9  1  0
  9 10  2  0
 10 11  1  0
 11 12  2  0
 12 13  1  0
  6 14  1  0
 14 15  2  0
 15 16  1  0
 16 17  2  0
 17 18  1  0
 18 19  2  0
 19 20  1  0
 20 21  2  0
 21 22  1  0
 22 23  2  0
 23 24  1  0
 24 25  1  0
 25 26  2  0
 17 27  1  0
 27 28  2  0
 28 29  1  0
 29 30  2  0
 30 31  1  0
 31 32  2  0
  5  1  1  0
 13  9  1  0
 32 14  1  0
  8  4  2  0
 26 18  1  0
 32 27  1  0
 26 22  1  0
  1 33  1  0
  1 34  1  0
  2 35  1  0
  3 36  1  0
 10 37  1  0
 12 38  1  0
 15 39  1  0
 16 40  1  0
 20 41  1  0
 21 42  1  0
 28 43  1  0
 29 44  1  0
 30 45  1  0
 31 46  1  0
M  END
