
     RDKit          3D

 39 44  0  0  0  0  0  0  0  0999 V2000
    1.5330   -1.8939    2.3907 Si  0  0  0  0  0  4  0  0  0  0  0  0
    3.3556   -1.8266    2.9693 C   0  0  0  0  0  0  0  0  0  0  0  0
    4.0487   -0.8704    2.3139 C   0  0  0  0  0  0  0  0  0  0  0  0
    3.2919   -0.1178    1.3536 C   0  0  0  0  0  0  0  0  0  0  0  0
    1.9223   -0.4755    1.2051 C   0  0  0  0  0  0  0  0  0  0  0  0
    1.2096    0.2501    0.2901 C   0  0  0  0  0  0  0  0  0  0  0  0
    2.2909    1.3780   -0.4519 S   0  0  0  0  0  0  0  0  0  0  0  0
    3.6518    0.9061    0.5089 C   0  0  0  0  0  0  0  0  0  0  0  0
    4.9232    1.5654    0.3830 C   0  0  0  0  0  0  0  0  0  0  0  0
    5.7450    2.0251    1.3967 C   0  0  0  0  0  0  0  0  0  0  0  0
    6.9354    2.6084    1.0019 N   0  0  0  0  0  0  0  0  0  0  0  0
    7.0012    2.5933   -0.3105 C   0  0  0  0  0  0  0  0  0  0  0  0
    5.6728    1.8869   -1.1303 S   0  0  0  0  0  0  0  0  0  0  0  0
   -0.1853    0.1364   -0.1189 C   0  0  0  0  0  0  0  0  0  0  0  0
   -0.7393   -1.1164   -0.0713 N   0  0  0  0  0  0  0  0  0  0  0  0
   -2.0414   -1.3299   -0.4422 C   0  0  0  0  0  0  0  0  0  0  0  0
   -2.9829   -0.3895   -0.8811 C   0  0  0  0  0  0  0  0  0  0  0  0
   -4.3586   -0.7193   -1.2479 C   0  0  0  0  0  0  0  0  0  0  0  0
   -4.9458   -0.2742   -2.4395 C   0  0  0  0  0  0  0  0  0  0  0  0
   -6.2564   -0.6280   -2.7581 C   0  0  0  0  0  0  0  0  0  0  0  0
   -6.9541   -1.4294   -1.8728 C   0  0  0  0  0  0  0  0  0  0  0  0
   -6.4357   -1.8873   -0.7155 N   0  0  0  0  0  0  0  0  0  0  0  0
   -5.1630   -1.5189   -0.4323 C   0  0  0  0  0  0  0  0  0  0  0  0
   -2.4553    0.9302   -0.9150 C   0  0  0  0  0  0  0  0  0  0  0  0
   -3.1210    2.0455   -1.2685 N   0  0  0  0  0  0  0  0  0  0  0  0
   -2.0717    3.3143   -1.1124 S   0  0  0  0  0  0  0  0  0  0  0  0
   -0.7174    2.5249   -0.5907 N   0  0  0  0  0  0  0  0  0  0  0  0
   -1.0172    1.2145   -0.5205 C   0  0  0  0  0  0  0  0  0  0  0  0
    1.2580   -3.2013    1.7440 H   0  0  0  0  0  0  0  0  0  0  0  0
    0.6253   -1.5200    3.5048 H   0  0  0  0  0  0  0  0  0  0  0  0
    3.7215   -2.5084    3.7201 H   0  0  0  0  0  0  0  0  0  0  0  0
    5.1034   -0.6920    2.4902 H   0  0  0  0  0  0  0  0  0  0  0  0
    5.5206    1.9644    2.4551 H   0  0  0  0  0  0  0  0  0  0  0  0
    7.8453    3.0016   -0.8507 H   0  0  0  0  0  0  0  0  0  0  0  0
   -2.3245   -2.3825   -0.3790 H   0  0  0  0  0  0  0  0  0  0  0  0
   -4.3888    0.3525   -3.1331 H   0  0  0  0  0  0  0  0  0  0  0  0
   -6.7192   -0.2840   -3.6764 H   0  0  0  0  0  0  0  0  0  0  0  0
   -7.9773   -1.7320   -2.0764 H   0  0  0  0  0  0  0  0  0  0  0  0
   -4.8003   -1.9004    0.5197 H   0  0  0  0  0  0  0  0  0  0  0  0
  1  2  1  0
  2  3  2  0
  3  4  1  0
  4  5  1  0
  5  6  2  0
  6  7  1  0
  7  8  1  0
  8  9  1  0
  9 10  2  0
 10 11  1  0
 11 12  2  0
 12 13  1  0
  6 14  1  0
 14 15  2  0
 15 16  1  0
 16 17  2  0
 17 18  1  0
 18 19  2  0
 19 20  1  0
 20 21  2  0
 21 22  1  0
 22 23  2  0
 17 24  1  0
 24 25  2  0
 25 26  1  0
 26 27  1  0
 27 28  2  0
  5  1  1  0
 13  9  1  0
 28 14  1  0
  8  4  2  0
 23 18  1  0
 28 24  1  0
  1 29  1  0
  1 30  1  0
  2 31  1  0
  3 32  1  0
 10 33  1  0
 12 34  1  0
 16 35  1  0
 19 36  1  0
 20 37  1  0
 21 38  1  0
 23 39  1  0
M  END
