
     RDKit          3D

 35 39  0  0  0  0  0  0  0  0999 V2000
   -0.8000   -1.4801    2.6442 Si  0  0  0  0  0  4  0  0  0  0  0  0
   -2.6604   -1.6603    3.0172 C   0  0  0  0  0  0  0  0  0  0  0  0
   -3.4196   -1.1129    2.0433 C   0  0  0  0  0  0  0  0  0  0  0  0
   -2.6905   -0.5279    0.9522 C   0  0  0  0  0  0  0  0  0  0  0  0
   -1.2685   -0.5915    1.0433 C   0  0  0  0  0  0  0  0  0  0  0  0
   -0.5893    0.0039    0.0215 C   0  0  0  0  0  0  0  0  0  0  0  0
   -1.7282    0.6663   -1.0929 S   0  0  0  0  0  0  0  0  0  0  0  0
   -3.1074    0.1217   -0.1890 C   0  0  0  0  0  0  0  0  0  0  0  0
   -4.4326    0.3885   -0.6852 C   0  0  0  0  0  0  0  0  0  0  0  0
   -4.7738    1.5510   -1.2063 N   0  0  0  0  0  0  0  0  0  0  0  0
   -6.0898    1.5144   -1.6216 C   0  0  0  0  0  0  0  0  0  0  0  0
   -6.7427    0.3188   -1.4222 C   0  0  0  0  0  0  0  0  0  0  0  0
   -5.6750   -0.8046   -0.6930 S   0  0  0  0  0  0  0  0  0  0  0  0
    0.8403    0.1372   -0.2313 C   0  0  0  0  0  0  0  0  0  0  0  0
    1.4576    1.3859   -0.3144 C   0  0  0  0  0  0  0  0  0  0  0  0
    2.8341    1.4691   -0.5357 C   0  0  0  0  0  0  0  0  0  0  0  0
    3.5712    0.2934   -0.6701 C   0  0  0  0  0  0  0  0  0  0  0  0
    2.9916   -0.9320   -0.5881 N   0  0  0  0  0  0  0  0  0  0  0  0
    1.6541   -0.9805   -0.3789 C   0  0  0  0  0  0  0  0  0  0  0  0
    5.0298    0.2798   -0.8913 C   0  0  0  0  0  0  0  0  0  0  0  0
    5.8726   -0.6024   -0.3816 N   0  0  0  0  0  0  0  0  0  0  0  0
    7.1587   -0.3430   -0.8071 C   0  0  0  0  0  0  0  0  0  0  0  0
    7.3008    0.7422   -1.6409 C   0  0  0  0  0  0  0  0  0  0  0  0
    5.7731    1.4651   -1.9107 S   0  0  0  0  0  0  0  0  0  0  0  0
   -0.1400   -0.6078    3.6459 H   0  0  0  0  0  0  0  0  0  0  0  0
   -0.1717   -2.8047    2.4189 H   0  0  0  0  0  0  0  0  0  0  0  0
   -2.9997   -2.1412    3.9208 H   0  0  0  0  0  0  0  0  0  0  0  0
   -4.5022   -1.1040    2.0928 H   0  0  0  0  0  0  0  0  0  0  0  0
   -6.5270    2.3979   -2.0708 H   0  0  0  0  0  0  0  0  0  0  0  0
   -7.7621    0.0584   -1.6671 H   0  0  0  0  0  0  0  0  0  0  0  0
    0.8778    2.2989   -0.1978 H   0  0  0  0  0  0  0  0  0  0  0  0
    3.3083    2.4438   -0.5824 H   0  0  0  0  0  0  0  0  0  0  0  0
    1.2443   -1.9867   -0.3377 H   0  0  0  0  0  0  0  0  0  0  0  0
    7.9643   -0.9863   -0.4749 H   0  0  0  0  0  0  0  0  0  0  0  0
    8.2017    1.1295   -2.0939 H   0  0  0  0  0  0  0  0  0  0  0  0
  1  2  1  0
  2  3  2  0
  3  4  1  0
  4  5  1  0
  5  6  2  0
  6  7  1  0
  7  8  1  0
  8  9  1  0
  9 10  2  0
 10 11  1  0
 11 12  2  0
 12 13  1  0
  6 14  1  0
 14 15  2  0
 15 16  1  0
 16 17  2  0
 17 18  1  0
 18 19  2  0
 17 20  1  0
 20 21  2  0
 21 22  1  0
 22 23  2  0
 23 24  1  0
  5  1  1  0
 13  9  1  0
 19 14  1  0
 24 20  1  0
  8  4  2  0
  1 25  1  0
  1 26  1  0
  2 27  1  0
  3 28  1  0
 11 29  1  0
 12 30  1  0
 15 31  1  0
 16 32  1  0
 19 33  1  0
 22 34  1  0
 23 35  1  0
M  END
