
     RDKit          3D

 45 51  0  0  0  0  0  0  0  0999 V2000
    4.2599    0.3842    2.5796 Si  0  0  0  0  0  4  0  0  0  0  0  0
    2.5328    1.0103    3.0902 C   0  0  0  0  0  0  0  0  0  0  0  0
    1.6338    0.8463    2.0953 C   0  0  0  0  0  0  0  0  0  0  0  0
    2.1507    0.2473    0.8966 C   0  0  0  0  0  0  0  0  0  0  0  0
    3.5355   -0.0901    0.9060 C   0  0  0  0  0  0  0  0  0  0  0  0
    4.0129   -0.6275   -0.2528 C   0  0  0  0  0  0  0  0  0  0  0  0
    2.7219   -0.7267   -1.3943 S   0  0  0  0  0  0  0  0  0  0  0  0
    1.5521   -0.0552   -0.3051 C   0  0  0  0  0  0  0  0  0  0  0  0
    0.1875    0.1072   -0.7189 C   0  0  0  0  0  0  0  0  0  0  0  0
   -1.1533   -0.4855    0.2259 S   0  0  0  0  0  0  0  0  0  0  0  0
   -2.3452    0.0761   -0.8940 C   0  0  0  0  0  0  0  0  0  0  0  0
   -3.7648   -0.1180   -0.7368 C   0  0  0  0  0  0  0  0  0  0  0  0
   -4.5966   -0.7327   -1.7092 C   0  0  0  0  0  0  0  0  0  0  0  0
   -6.0136   -0.9342   -1.5536 C   0  0  0  0  0  0  0  0  0  0  0  0
   -6.7515   -0.5377   -0.4158 C   0  0  0  0  0  0  0  0  0  0  0  0
   -5.9228    0.0741    0.5153 C   0  0  0  0  0  0  0  0  0  0  0  0
   -6.3223    0.5953    1.7183 C   0  0  0  0  0  0  0  0  0  0  0  0
   -5.1989    1.1252    2.3154 N   0  0  0  0  0  0  0  0  0  0  0  0
   -4.0962    0.9490    1.5043 C   0  0  0  0  0  0  0  0  0  0  0  0
   -4.5138    0.2792    0.3784 C   0  0  0  0  0  0  0  0  0  0  0  0
   -1.6997    0.6411   -1.9337 C   0  0  0  0  0  0  0  0  0  0  0  0
   -2.2552    1.1908   -3.0509 O   0  0  0  0  0  0  0  0  0  0  0  0
   -1.1093    1.5973   -3.7080 C   0  0  0  0  0  0  0  0  0  0  0  0
    0.0778    1.3071   -3.0252 C   0  0  0  0  0  0  0  0  0  0  0  0
   -0.3280    0.6632   -1.8413 C   0  0  0  0  0  0  0  0  0  0  0  0
    5.3396   -1.0848   -0.5621 C   0  0  0  0  0  0  0  0  0  0  0  0
    6.0840   -2.0100    0.1452 C   0  0  0  0  0  0  0  0  0  0  0  0
    7.3739   -2.2232   -0.4242 C   0  0  0  0  0  0  0  0  0  0  0  0
    7.5741   -1.4510   -1.5459 C   0  0  0  0  0  0  0  0  0  0  0  0
    6.2144   -0.4790   -1.9065 S   0  0  0  0  0  0  0  0  0  0  0  0
    4.6707   -0.7799    3.4044 H   0  0  0  0  0  0  0  0  0  0  0  0
    5.2325    1.5035    2.5300 H   0  0  0  0  0  0  0  0  0  0  0  0
    2.3627    1.4391    4.0646 H   0  0  0  0  0  0  0  0  0  0  0  0
    0.5982    1.1522    2.1890 H   0  0  0  0  0  0  0  0  0  0  0  0
   -4.1415   -1.0808   -2.6379 H   0  0  0  0  0  0  0  0  0  0  0  0
   -6.5480   -1.4216   -2.3698 H   0  0  0  0  0  0  0  0  0  0  0  0
   -7.8159   -0.6895   -0.3113 H   0  0  0  0  0  0  0  0  0  0  0  0
   -7.2862    0.6508    2.2052 H   0  0  0  0  0  0  0  0  0  0  0  0
   -5.1856    1.5882    3.2146 H   0  0  0  0  0  0  0  0  0  0  0  0
   -3.1308    1.3236    1.8143 H   0  0  0  0  0  0  0  0  0  0  0  0
   -1.2985    2.0828   -4.6566 H   0  0  0  0  0  0  0  0  0  0  0  0
    1.0785    1.5393   -3.3608 H   0  0  0  0  0  0  0  0  0  0  0  0
    5.7179   -2.5248    1.0255 H   0  0  0  0  0  0  0  0  0  0  0  0
    8.1140   -2.9105   -0.0329 H   0  0  0  0  0  0  0  0  0  0  0  0
    8.4525   -1.4103   -2.1754 H   0  0  0  0  0  0  0  0  0  0  0  0
  1  2  1  0
  2  3  2  0
  3  4  1  0
  4  5  1  0
  5  6  2  0
  6  7  1  0
  7  8  1  0
  8  9  1  0
  9 10  1  0
 10 11  1  0
 11 12  1  0
 12 13  2  0
 13 14  1  0
 14 15  2  0
 15 16  1  0
 16 17  2  0
 17 18  1  0
 18 19  1  0
 19 20  2  0
 11 21  2  0
 21 22  1  0
 22 23  1  0
 23 24  2  0
 24 25  1  0
  6 26  1  0
 26 27  2  0
 27 28  1  0
 28 29  2  0
 29 30  1  0
  5  1  1  0
 25  9  2  0
 30 26  1  0
  8  4  2  0
 20 12  1  0
 25 21  1  0
 20 16  1  0
  1 31  1  0
  1 32  1  0
  2 33  1  0
  3 34  1  0
 13 35  1  0
 14 36  1  0
 15 37  1  0
 17 38  1  0
 18 39  1  0
 19 40  1  0
 23 41  1  0
 24 42  1  0
 27 43  1  0
 28 44  1  0
 29 45  1  0
M  END
