
     RDKit          3D

 42 48  0  0  0  0  0  0  0  0999 V2000
    2.9971   -1.8748    2.1326 Si  0  0  0  0  0  4  0  0  0  0  0  0
    1.2650   -2.6271    2.4112 C   0  0  0  0  0  0  0  0  0  0  0  0
    0.3111   -1.9191    1.7679 C   0  0  0  0  0  0  0  0  0  0  0  0
    0.7873   -0.7814    1.0331 C   0  0  0  0  0  0  0  0  0  0  0  0
    2.1912   -0.5459    1.0693 C   0  0  0  0  0  0  0  0  0  0  0  0
    2.6125    0.5489    0.3760 C   0  0  0  0  0  0  0  0  0  0  0  0
    1.2488    1.3188   -0.3466 S   0  0  0  0  0  0  0  0  0  0  0  0
    0.1207    0.1660    0.2907 C   0  0  0  0  0  0  0  0  0  0  0  0
   -1.2875    0.2708    0.0093 C   0  0  0  0  0  0  0  0  0  0  0  0
   -2.1706    1.6853    0.4213 S   0  0  0  0  0  0  0  0  0  0  0  0
   -3.6630    1.0637   -0.1761 C   0  0  0  0  0  0  0  0  0  0  0  0
   -4.8596    1.8644   -0.1006 C   0  0  0  0  0  0  0  0  0  0  0  0
   -6.1478    1.5765   -0.5299 C   0  0  0  0  0  0  0  0  0  0  0  0
   -6.9642    2.6930   -0.2256 C   0  0  0  0  0  0  0  0  0  0  0  0
   -6.1384    3.6086    0.3740 C   0  0  0  0  0  0  0  0  0  0  0  0
   -4.8758    3.1244    0.4551 O   0  0  0  0  0  0  0  0  0  0  0  0
   -3.4859   -0.2090   -0.6791 C   0  0  0  0  0  0  0  0  0  0  0  0
   -4.4875   -0.9653   -1.2236 N   0  0  0  0  0  0  0  0  0  0  0  0
   -4.0274   -2.1738   -1.6417 C   0  0  0  0  0  0  0  0  0  0  0  0
   -2.7053   -2.6116   -1.5351 C   0  0  0  0  0  0  0  0  0  0  0  0
   -1.6876   -1.8925   -0.9969 N   0  0  0  0  0  0  0  0  0  0  0  0
   -2.1150   -0.6667   -0.5682 C   0  0  0  0  0  0  0  0  0  0  0  0
    3.9408    1.0504    0.1984 C   0  0  0  0  0  0  0  0  0  0  0  0
    4.4424    2.5776    0.8243 S   0  0  0  0  0  0  0  0  0  0  0  0
    6.0566    2.4002    0.2436 C   0  0  0  0  0  0  0  0  0  0  0  0
    6.1986    1.2088   -0.4082 C   0  0  0  0  0  0  0  0  0  0  0  0
    7.6241    0.4682   -1.2212 S   0  0  0  0  0  0  0  0  0  0  0  0
    6.5324   -0.8619   -1.5870 C   0  0  0  0  0  0  0  0  0  0  0  0
    5.2184   -0.7317   -1.1220 C   0  0  0  0  0  0  0  0  0  0  0  0
    5.0076    0.4836   -0.4167 C   0  0  0  0  0  0  0  0  0  0  0  0
    3.5675   -1.3764    3.4085 H   0  0  0  0  0  0  0  0  0  0  0  0
    3.8593   -2.8126    1.3700 H   0  0  0  0  0  0  0  0  0  0  0  0
    1.1329   -3.5104    3.0148 H   0  0  0  0  0  0  0  0  0  0  0  0
   -0.7392   -2.1863    1.7959 H   0  0  0  0  0  0  0  0  0  0  0  0
   -6.4645    0.6613   -1.0109 H   0  0  0  0  0  0  0  0  0  0  0  0
   -8.0203    2.8121   -0.4206 H   0  0  0  0  0  0  0  0  0  0  0  0
   -6.2851    4.6000    0.7792 H   0  0  0  0  0  0  0  0  0  0  0  0
   -4.7795   -2.8186   -2.0881 H   0  0  0  0  0  0  0  0  0  0  0  0
   -2.4255   -3.5966   -1.8983 H   0  0  0  0  0  0  0  0  0  0  0  0
    6.8138    3.1564    0.3979 H   0  0  0  0  0  0  0  0  0  0  0  0
    6.9398   -1.6912   -2.1493 H   0  0  0  0  0  0  0  0  0  0  0  0
    4.4617   -1.4863   -1.3008 H   0  0  0  0  0  0  0  0  0  0  0  0
  1  2  1  0
  2  3  2  0
  3  4  1  0
  4  5  1  0
  5  6  2  0
  6  7  1  0
  7  8  1  0
  8  9  1  0
  9 10  1  0
 10 11  1  0
 11 12  1  0
 12 13  2  0
 13 14  1  0
 14 15  2  0
 15 16  1  0
 11 17  2  0
 17 18  1  0
 18 19  2  0
 19 20  1  0
 20 21  2  0
 21 22  1  0
  6 23  1  0
 23 24  1  0
 24 25  1  0
 25 26  2  0
 26 27  1  0
 27 28  1  0
 28 29  2  0
 29 30  1  0
  5  1  1  0
 22  9  2  0
 30 23  2  0
  8  4  2  0
 16 12  1  0
 22 17  1  0
 30 26  1  0
  1 31  1  0
  1 32  1  0
  2 33  1  0
  3 34  1  0
 13 35  1  0
 14 36  1  0
 15 37  1  0
 19 38  1  0
 20 39  1  0
 25 40  1  0
 28 41  1  0
 29 42  1  0
M  END
