
     RDKit          3D

 46 52  0  0  0  0  0  0  0  0999 V2000
   -7.9867    1.4637   -0.0117 Si  0  0  0  0  0  4  0  0  0  0  0  0
   -6.5035    2.2991   -0.8862 C   0  0  0  0  0  0  0  0  0  0  0  0
   -5.3414    1.6757   -0.5914 C   0  0  0  0  0  0  0  0  0  0  0  0
   -5.4646    0.5496    0.2884 C   0  0  0  0  0  0  0  0  0  0  0  0
   -6.7746    0.2352    0.7402 C   0  0  0  0  0  0  0  0  0  0  0  0
   -6.8525   -0.8331    1.5789 C   0  0  0  0  0  0  0  0  0  0  0  0
   -5.2719   -1.4800    1.8309 S   0  0  0  0  0  0  0  0  0  0  0  0
   -4.5202   -0.3109    0.7958 C   0  0  0  0  0  0  0  0  0  0  0  0
   -3.0841   -0.3638    0.5954 C   0  0  0  0  0  0  0  0  0  0  0  0
   -2.1432   -0.0303    1.5953 C   0  0  0  0  0  0  0  0  0  0  0  0
   -0.7274   -0.0605    1.3938 C   0  0  0  0  0  0  0  0  0  0  0  0
   -0.0988   -0.4302    0.1755 C   0  0  0  0  0  0  0  0  0  0  0  0
    1.3456   -0.4614    0.0005 C   0  0  0  0  0  0  0  0  0  0  0  0
    2.1135    0.7037    0.0464 C   0  0  0  0  0  0  0  0  0  0  0  0
    3.4990    0.6401   -0.1199 C   0  0  0  0  0  0  0  0  0  0  0  0
    4.1027   -0.5966   -0.3255 C   0  0  0  0  0  0  0  0  0  0  0  0
    3.3811   -1.7427   -0.3716 N   0  0  0  0  0  0  0  0  0  0  0  0
    2.0395   -1.6508   -0.2041 C   0  0  0  0  0  0  0  0  0  0  0  0
    5.5388   -0.7588   -0.5115 C   0  0  0  0  0  0  0  0  0  0  0  0
    6.2557   -2.1206   -1.3272 S   0  0  0  0  0  0  0  0  0  0  0  0
    7.8820   -1.5420   -1.1154 C   0  0  0  0  0  0  0  0  0  0  0  0
    7.8126   -0.3719   -0.4488 C   0  0  0  0  0  0  0  0  0  0  0  0
    8.6569    0.6246    0.0625 C   0  0  0  0  0  0  0  0  0  0  0  0
    7.7956    1.5562    0.6547 C   0  0  0  0  0  0  0  0  0  0  0  0
    6.4550    1.2309    0.5594 O   0  0  0  0  0  0  0  0  0  0  0  0
    6.5461    0.0524   -0.1222 C   0  0  0  0  0  0  0  0  0  0  0  0
   -1.0404   -0.7577   -0.8218 C   0  0  0  0  0  0  0  0  0  0  0  0
   -0.7123   -1.1200   -2.1090 C   0  0  0  0  0  0  0  0  0  0  0  0
   -2.1054   -1.4592   -3.0537 S   0  0  0  0  0  0  0  0  0  0  0  0
   -3.1648   -1.1076   -1.7505 C   0  0  0  0  0  0  0  0  0  0  0  0
   -2.4776   -0.7263   -0.6203 C   0  0  0  0  0  0  0  0  0  0  0  0
   -8.6077    2.3821    0.9748 H   0  0  0  0  0  0  0  0  0  0  0  0
   -8.9178    0.8661   -1.0006 H   0  0  0  0  0  0  0  0  0  0  0  0
   -6.6471    3.1588   -1.5206 H   0  0  0  0  0  0  0  0  0  0  0  0
   -4.3825    1.9948   -0.9845 H   0  0  0  0  0  0  0  0  0  0  0  0
   -7.7130   -1.2771    2.0608 H   0  0  0  0  0  0  0  0  0  0  0  0
   -2.5092    0.2714    2.5778 H   0  0  0  0  0  0  0  0  0  0  0  0
   -0.0969    0.2118    2.2427 H   0  0  0  0  0  0  0  0  0  0  0  0
    1.6402    1.6707    0.2018 H   0  0  0  0  0  0  0  0  0  0  0  0
    4.0791    1.5564   -0.0955 H   0  0  0  0  0  0  0  0  0  0  0  0
    1.5181   -2.6049   -0.2386 H   0  0  0  0  0  0  0  0  0  0  0  0
    8.7313   -2.0981   -1.4855 H   0  0  0  0  0  0  0  0  0  0  0  0
    9.7350    0.6866    0.0276 H   0  0  0  0  0  0  0  0  0  0  0  0
    7.9841    2.4856    1.1763 H   0  0  0  0  0  0  0  0  0  0  0  0
    0.2639   -1.2115   -2.5656 H   0  0  0  0  0  0  0  0  0  0  0  0
   -4.2323   -1.1993   -1.8987 H   0  0  0  0  0  0  0  0  0  0  0  0
  1  2  1  0
  2  3  2  0
  3  4  1  0
  4  5  1  0
  5  6  2  0
  6  7  1  0
  7  8  1  0
  8  9  1  0
  9 10  2  0
 10 11  1  0
 11 12  2  0
 12 13  1  0
 13 14  2  0
 14 15  1  0
 15 16  2  0
 16 17  1  0
 17 18  2  0
 16 19  1  0
 19 20  1  0
 20 21  1  0
 21 22  2  0
 22 23  1  0
 23 24  2  0
 24 25  1  0
 25 26  1  0
 12 27  1  0
 27 28  2  0
 28 29  1  0
 29 30  1  0
 30 31  2  0
  5  1  1  0
 31  9  1  0
  8  4  2  0
 18 13  1  0
 26 19  2  0
 31 27  1  0
 26 22  1  0
  1 32  1  0
  1 33  1  0
  2 34  1  0
  3 35  1  0
  6 36  1  0
 10 37  1  0
 11 38  1  0
 14 39  1  0
 15 40  1  0
 18 41  1  0
 21 42  1  0
 23 43  1  0
 24 44  1  0
 28 45  1  0
 30 46  1  0
M  END
