
     RDKit          3D

 45 51  0  0  0  0  0  0  0  0999 V2000
   -8.0433    0.2559   -0.8478 Si  0  0  0  0  0  4  0  0  0  0  0  0
   -6.6142    1.5196   -0.8672 C   0  0  0  0  0  0  0  0  0  0  0  0
   -5.4878    1.0022   -0.3288 C   0  0  0  0  0  0  0  0  0  0  0  0
   -5.5971   -0.3543    0.1314 C   0  0  0  0  0  0  0  0  0  0  0  0
   -6.8724   -0.9675   -0.0261 C   0  0  0  0  0  0  0  0  0  0  0  0
   -6.9628   -2.2426    0.4375 C   0  0  0  0  0  0  0  0  0  0  0  0
   -5.4433   -2.7191    1.0968 S   0  0  0  0  0  0  0  0  0  0  0  0
   -4.6855   -1.1984    0.7269 C   0  0  0  0  0  0  0  0  0  0  0  0
   -3.2983   -0.9825    1.0504 C   0  0  0  0  0  0  0  0  0  0  0  0
   -2.6712   -1.2388    2.2537 C   0  0  0  0  0  0  0  0  0  0  0  0
   -1.2820   -0.9157    2.2249 C   0  0  0  0  0  0  0  0  0  0  0  0
   -0.8781   -0.4202    0.9994 C   0  0  0  0  0  0  0  0  0  0  0  0
   -2.1877   -0.3817   -0.1057 S   0  0  0  0  0  0  0  0  0  0  0  0
    0.4500   -0.0057    0.6151 C   0  0  0  0  0  0  0  0  0  0  0  0
    1.8182   -0.9599    1.0530 S   0  0  0  0  0  0  0  0  0  0  0  0
    2.9341    0.0858    0.2694 C   0  0  0  0  0  0  0  0  0  0  0  0
    4.3489   -0.2465    0.2946 C   0  0  0  0  0  0  0  0  0  0  0  0
    5.1227   -0.3131    1.4806 C   0  0  0  0  0  0  0  0  0  0  0  0
    6.5168   -0.6408    1.5082 C   0  0  0  0  0  0  0  0  0  0  0  0
    7.2795   -0.9369    0.3584 C   0  0  0  0  0  0  0  0  0  0  0  0
    6.5144   -0.8728   -0.8065 C   0  0  0  0  0  0  0  0  0  0  0  0
    7.0445   -1.1295   -2.0467 C   0  0  0  0  0  0  0  0  0  0  0  0
    5.8528   -0.9814   -3.2753 S   0  0  0  0  0  0  0  0  0  0  0  0
    4.6256   -0.5736   -2.1408 C   0  0  0  0  0  0  0  0  0  0  0  0
    5.1083   -0.5412   -0.8523 C   0  0  0  0  0  0  0  0  0  0  0  0
    2.2800    1.1564   -0.2983 C   0  0  0  0  0  0  0  0  0  0  0  0
    2.9209    2.1578   -0.9699 N   0  0  0  0  0  0  0  0  0  0  0  0
    2.0412    3.0913   -1.4174 C   0  0  0  0  0  0  0  0  0  0  0  0
    0.6581    3.0502   -1.2214 C   0  0  0  0  0  0  0  0  0  0  0  0
   -0.0085    2.0706   -0.5562 N   0  0  0  0  0  0  0  0  0  0  0  0
    0.8471    1.1077   -0.0983 C   0  0  0  0  0  0  0  0  0  0  0  0
   -8.4441   -0.1215   -2.2259 H   0  0  0  0  0  0  0  0  0  0  0  0
   -9.1494    0.7139    0.0296 H   0  0  0  0  0  0  0  0  0  0  0  0
   -6.7535    2.5104   -1.2685 H   0  0  0  0  0  0  0  0  0  0  0  0
   -4.5679    1.5693   -0.2419 H   0  0  0  0  0  0  0  0  0  0  0  0
   -7.8043   -2.9219    0.4417 H   0  0  0  0  0  0  0  0  0  0  0  0
   -3.1840   -1.6335    3.1228 H   0  0  0  0  0  0  0  0  0  0  0  0
   -0.6186   -1.0371    3.0729 H   0  0  0  0  0  0  0  0  0  0  0  0
    4.6400   -0.0963    2.4344 H   0  0  0  0  0  0  0  0  0  0  0  0
    7.0164   -0.6605    2.4775 H   0  0  0  0  0  0  0  0  0  0  0  0
    8.3322   -1.1829    0.4019 H   0  0  0  0  0  0  0  0  0  0  0  0
    8.0583   -1.3977   -2.3096 H   0  0  0  0  0  0  0  0  0  0  0  0
    3.6250   -0.3770   -2.4994 H   0  0  0  0  0  0  0  0  0  0  0  0
    2.4906    3.9161   -1.9634 H   0  0  0  0  0  0  0  0  0  0  0  0
    0.0282    3.8434   -1.6144 H   0  0  0  0  0  0  0  0  0  0  0  0
  1  2  1  0
  2  3  2  0
  3  4  1  0
  4  5  1  0
  5  6  2  0
  6  7  1  0
  7  8  1  0
  8  9  1  0
  9 10  2  0
 10 11  1  0
 11 12  2  0
 12 13  1  0
 12 14  1  0
 14 15  1  0
 15 16  1  0
 16 17  1  0
 17 18  2  0
 18 19  1  0
 19 20  2  0
 20 21  1  0
 21 22  2  0
 22 23  1  0
 23 24  1  0
 24 25  2  0
 16 26  2  0
 26 27  1  0
 27 28  2  0
 28 29  1  0
 29 30  2  0
 30 31  1  0
  5  1  1  0
 13  9  1  0
 31 14  2  0
  8  4  2  0
 25 17  1  0
 31 26  1  0
 25 21  1  0
  1 32  1  0
  1 33  1  0
  2 34  1  0
  3 35  1  0
  6 36  1  0
 10 37  1  0
 11 38  1  0
 18 39  1  0
 19 40  1  0
 20 41  1  0
 22 42  1  0
 24 43  1  0
 28 44  1  0
 29 45  1  0
M  END
