
     RDKit          3D

 43 48  0  0  0  0  0  0  0  0999 V2000
    8.1091    0.3771   -0.5039 Si  0  0  0  0  0  4  0  0  0  0  0  0
    6.9175    1.4445   -1.5368 C   0  0  0  0  0  0  0  0  0  0  0  0
    5.6264    1.1505   -1.2666 C   0  0  0  0  0  0  0  0  0  0  0  0
    5.4220    0.1221   -0.2829 C   0  0  0  0  0  0  0  0  0  0  0  0
    6.6038   -0.4474    0.2717 C   0  0  0  0  0  0  0  0  0  0  0  0
    6.3971   -1.4194    1.1979 C   0  0  0  0  0  0  0  0  0  0  0  0
    4.7054   -1.6535    1.4075 S   0  0  0  0  0  0  0  0  0  0  0  0
    4.2696   -0.4357    0.2374 C   0  0  0  0  0  0  0  0  0  0  0  0
    2.8908   -0.1150   -0.0736 C   0  0  0  0  0  0  0  0  0  0  0  0
    2.5648    0.9346   -0.8062 N   0  0  0  0  0  0  0  0  0  0  0  0
    1.1941    1.0086   -0.9564 C   0  0  0  0  0  0  0  0  0  0  0  0
    0.4718    0.0115   -0.3366 C   0  0  0  0  0  0  0  0  0  0  0  0
    1.5448   -1.0583    0.4582 S   0  0  0  0  0  0  0  0  0  0  0  0
   -0.9730   -0.2126   -0.2986 C   0  0  0  0  0  0  0  0  0  0  0  0
   -1.5054   -1.1291   -1.2115 C   0  0  0  0  0  0  0  0  0  0  0  0
   -2.8722   -1.3761   -1.2411 C   0  0  0  0  0  0  0  0  0  0  0  0
   -3.7568   -0.7189   -0.3641 C   0  0  0  0  0  0  0  0  0  0  0  0
   -5.1875   -1.0624   -0.4559 C   0  0  0  0  0  0  0  0  0  0  0  0
   -5.7499   -1.0085   -1.6690 N   0  0  0  0  0  0  0  0  0  0  0  0
   -7.0304   -1.3671   -1.6995 C   0  0  0  0  0  0  0  0  0  0  0  0
   -7.7563   -1.7735   -0.6611 N   0  0  0  0  0  0  0  0  0  0  0  0
   -7.0840   -1.8043    0.4864 C   0  0  0  0  0  0  0  0  0  0  0  0
   -5.8089   -1.4648    0.6571 N   0  0  0  0  0  0  0  0  0  0  0  0
   -3.2324    0.2354    0.5631 C   0  0  0  0  0  0  0  0  0  0  0  0
   -4.0531    0.9746    1.4535 C   0  0  0  0  0  0  0  0  0  0  0  0
   -3.5335    1.8997    2.3596 C   0  0  0  0  0  0  0  0  0  0  0  0
   -2.1695    2.1225    2.4040 C   0  0  0  0  0  0  0  0  0  0  0  0
   -1.3314    1.4263    1.5354 C   0  0  0  0  0  0  0  0  0  0  0  0
   -1.8279    0.4840    0.5991 C   0  0  0  0  0  0  0  0  0  0  0  0
    8.9098   -0.5248   -1.3695 H   0  0  0  0  0  0  0  0  0  0  0  0
    8.8952    1.2093    0.4404 H   0  0  0  0  0  0  0  0  0  0  0  0
    7.2884    2.1785   -2.2342 H   0  0  0  0  0  0  0  0  0  0  0  0
    4.7980    1.6536   -1.7535 H   0  0  0  0  0  0  0  0  0  0  0  0
    7.1114   -2.0030    1.7625 H   0  0  0  0  0  0  0  0  0  0  0  0
    0.7685    1.8202   -1.5351 H   0  0  0  0  0  0  0  0  0  0  0  0
   -0.8563   -1.6607   -1.9045 H   0  0  0  0  0  0  0  0  0  0  0  0
   -3.2580   -2.1005   -1.9582 H   0  0  0  0  0  0  0  0  0  0  0  0
   -7.5296   -1.3245   -2.6614 H   0  0  0  0  0  0  0  0  0  0  0  0
   -7.6241   -2.1400    1.3647 H   0  0  0  0  0  0  0  0  0  0  0  0
   -5.1324    0.8384    1.4567 H   0  0  0  0  0  0  0  0  0  0  0  0
   -4.1992    2.4393    3.0278 H   0  0  0  0  0  0  0  0  0  0  0  0
   -1.7521    2.8367    3.1085 H   0  0  0  0  0  0  0  0  0  0  0  0
   -0.2643    1.6327    1.6036 H   0  0  0  0  0  0  0  0  0  0  0  0
  1  2  1  0
  2  3  2  0
  3  4  1  0
  4  5  1  0
  5  6  2  0
  6  7  1  0
  7  8  1  0
  8  9  1  0
  9 10  2  0
 10 11  1  0
 11 12  2  0
 12 13  1  0
 12 14  1  0
 14 15  2  0
 15 16  1  0
 16 17  2  0
 17 18  1  0
 18 19  2  0
 19 20  1  0
 20 21  2  0
 21 22  1  0
 22 23  2  0
 17 24  1  0
 24 25  2  0
 25 26  1  0
 26 27  2  0
 27 28  1  0
 28 29  2  0
  5  1  1  0
 13  9  1  0
 29 14  1  0
  8  4  2  0
 23 18  1  0
 29 24  1  0
  1 30  1  0
  1 31  1  0
  2 32  1  0
  3 33  1  0
  6 34  1  0
 11 35  1  0
 15 36  1  0
 16 37  1  0
 20 38  1  0
 22 39  1  0
 25 40  1  0
 26 41  1  0
 27 42  1  0
 28 43  1  0
M  END
