
     RDKit          3D

 46 53  0  0  0  0  0  0  0  0999 V2000
   -8.0492   -0.6900    0.5504 Si  0  0  0  0  0  4  0  0  0  0  0  0
   -6.8365   -1.3845   -0.7566 C   0  0  0  0  0  0  0  0  0  0  0  0
   -5.5831   -0.9160   -0.5680 C   0  0  0  0  0  0  0  0  0  0  0  0
   -5.4323   -0.0138    0.5382 C   0  0  0  0  0  0  0  0  0  0  0  0
   -6.6045    0.2606    1.2950 C   0  0  0  0  0  0  0  0  0  0  0  0
   -6.4253    1.1022    2.3488 C   0  0  0  0  0  0  0  0  0  0  0  0
   -4.7690    1.5815    2.4233 S   0  0  0  0  0  0  0  0  0  0  0  0
   -4.3314    0.6494    1.0292 C   0  0  0  0  0  0  0  0  0  0  0  0
   -2.9914    0.6551    0.5302 C   0  0  0  0  0  0  0  0  0  0  0  0
   -1.6157    0.1072    1.4271 S   0  0  0  0  0  0  0  0  0  0  0  0
   -0.4981    0.4023    0.1238 C   0  0  0  0  0  0  0  0  0  0  0  0
    0.9049    0.1530    0.2338 C   0  0  0  0  0  0  0  0  0  0  0  0
    2.0883    1.3543   -0.1209 S   0  0  0  0  0  0  0  0  0  0  0  0
    3.4153    0.3172    0.2484 C   0  0  0  0  0  0  0  0  0  0  0  0
    4.7789    0.7394    0.1320 C   0  0  0  0  0  0  0  0  0  0  0  0
    5.3668    2.2397    0.7990 S   0  0  0  0  0  0  0  0  0  0  0  0
    6.9998    1.9733    0.2716 C   0  0  0  0  0  0  0  0  0  0  0  0
    7.0355    0.7914   -0.3746 C   0  0  0  0  0  0  0  0  0  0  0  0
    8.1245    0.2076   -0.9529 N   0  0  0  0  0  0  0  0  0  0  0  0
    7.5648   -0.9626   -1.4623 C   0  0  0  0  0  0  0  0  0  0  0  0
    6.1838   -1.0435   -1.1818 C   0  0  0  0  0  0  0  0  0  0  0  0
    5.8338    0.1232   -0.4498 C   0  0  0  0  0  0  0  0  0  0  0  0
    2.9040   -0.8869    0.6090 C   0  0  0  0  0  0  0  0  0  0  0  0
    3.4826   -2.1153    1.0302 C   0  0  0  0  0  0  0  0  0  0  0  0
    2.5278   -3.1011    1.2968 C   0  0  0  0  0  0  0  0  0  0  0  0
    0.8503   -2.6400    1.0701 S   0  0  0  0  0  0  0  0  0  0  0  0
    1.5118   -1.0169    0.6086 C   0  0  0  0  0  0  0  0  0  0  0  0
   -1.2117    0.9189   -0.9033 C   0  0  0  0  0  0  0  0  0  0  0  0
   -1.0624    1.4043   -2.2299 C   0  0  0  0  0  0  0  0  0  0  0  0
   -2.3423    1.7935   -2.6790 C   0  0  0  0  0  0  0  0  0  0  0  0
   -3.3140    1.5823   -1.7042 N   0  0  0  0  0  0  0  0  0  0  0  0
   -2.5659    1.0568   -0.6878 C   0  0  0  0  0  0  0  0  0  0  0  0
   -8.5773   -1.7719    1.4172 H   0  0  0  0  0  0  0  0  0  0  0  0
   -9.0711    0.1756   -0.0885 H   0  0  0  0  0  0  0  0  0  0  0  0
   -7.1741   -2.0750   -1.5126 H   0  0  0  0  0  0  0  0  0  0  0  0
   -4.7451   -1.2083   -1.1917 H   0  0  0  0  0  0  0  0  0  0  0  0
   -7.1369    1.4644    3.0783 H   0  0  0  0  0  0  0  0  0  0  0  0
    7.7942    2.6803    0.4641 H   0  0  0  0  0  0  0  0  0  0  0  0
    9.0742    0.5570   -0.9913 H   0  0  0  0  0  0  0  0  0  0  0  0
    8.1999   -1.6559   -1.9992 H   0  0  0  0  0  0  0  0  0  0  0  0
    5.5313   -1.8517   -1.4856 H   0  0  0  0  0  0  0  0  0  0  0  0
    4.5449   -2.2950    1.1443 H   0  0  0  0  0  0  0  0  0  0  0  0
    2.7193   -4.1129    1.6278 H   0  0  0  0  0  0  0  0  0  0  0  0
   -0.1493    1.4749   -2.8065 H   0  0  0  0  0  0  0  0  0  0  0  0
   -2.6387    2.2149   -3.6311 H   0  0  0  0  0  0  0  0  0  0  0  0
   -4.3116    1.7615   -1.7090 H   0  0  0  0  0  0  0  0  0  0  0  0
  1  2  1  0
  2  3  2  0
  3  4  1  0
  4  5  1  0
  5  6  2  0
  6  7  1  0
  7  8  1  0
  8  9  1  0
  9 10  1  0
 10 11  1  0
 11 12  1  0
 12 13  1  0
 13 14  1  0
 14 15  1  0
 15 16  1  0
 16 17  1  0
 17 18  2  0
 18 19  1  0
 19 20  1  0
 20 21  2  0
 21 22  1  0
 14 23  2  0
 23 24  1  0
 24 25  2  0
 25 26  1  0
 26 27  1  0
 11 28  2  0
 28 29  1  0
 29 30  2  0
 30 31  1  0
 31 32  1  0
  5  1  1  0
 32  9  2  0
  8  4  2  0
 27 12  2  0
 32 28  1  0
 22 15  2  0
 27 23  1  0
 22 18  1  0
  1 33  1  0
  1 34  1  0
  2 35  1  0
  3 36  1  0
  6 37  1  0
 17 38  1  0
 19 39  1  0
 20 40  1  0
 21 41  1  0
 24 42  1  0
 25 43  1  0
 29 44  1  0
 30 45  1  0
 31 46  1  0
M  END
