
     RDKit          3D

 39 44  0  0  0  0  0  0  0  0999 V2000
    5.5325    1.4927   -0.0549 Si  0  0  0  0  0  4  0  0  0  0  0  0
    7.3412    1.2910    0.5429 C   0  0  0  0  0  0  0  0  0  0  0  0
    7.5078    0.1338    1.2203 C   0  0  0  0  0  0  0  0  0  0  0  0
    6.3286   -0.6682    1.3374 C   0  0  0  0  0  0  0  0  0  0  0  0
    6.1285   -1.8731    1.9537 C   0  0  0  0  0  0  0  0  0  0  0  0
    4.4842   -2.3764    1.7855 S   0  0  0  0  0  0  0  0  0  0  0  0
    4.0412   -0.9681    0.8792 C   0  0  0  0  0  0  0  0  0  0  0  0
    5.1410   -0.1726    0.7346 C   0  0  0  0  0  0  0  0  0  0  0  0
    2.7083   -0.7734    0.3792 C   0  0  0  0  0  0  0  0  0  0  0  0
    2.3417   -0.5394   -0.9298 C   0  0  0  0  0  0  0  0  0  0  0  0
    0.9317   -0.3714   -1.0776 C   0  0  0  0  0  0  0  0  0  0  0  0
    0.2529   -0.4766    0.1223 C   0  0  0  0  0  0  0  0  0  0  0  0
    1.3456   -0.7797    1.4113 S   0  0  0  0  0  0  0  0  0  0  0  0
   -1.1651   -0.3624    0.3466 C   0  0  0  0  0  0  0  0  0  0  0  0
   -1.8972   -0.3867    1.5196 C   0  0  0  0  0  0  0  0  0  0  0  0
   -3.2672   -0.2329    1.1872 C   0  0  0  0  0  0  0  0  0  0  0  0
   -3.3601   -0.1179   -0.1852 C   0  0  0  0  0  0  0  0  0  0  0  0
   -2.0748   -0.2002   -0.6731 N   0  0  0  0  0  0  0  0  0  0  0  0
   -4.5060    0.0537   -1.0310 C   0  0  0  0  0  0  0  0  0  0  0  0
   -4.3711    0.1832   -2.7725 S   0  0  0  0  0  0  0  0  0  0  0  0
   -6.0759    0.3559   -3.0141 C   0  0  0  0  0  0  0  0  0  0  0  0
   -6.6623    0.3104   -1.8055 C   0  0  0  0  0  0  0  0  0  0  0  0
   -7.9963    0.4103   -1.5580 O   0  0  0  0  0  0  0  0  0  0  0  0
   -7.9846    0.2970   -0.1808 C   0  0  0  0  0  0  0  0  0  0  0  0
   -6.7068    0.1374    0.3704 C   0  0  0  0  0  0  0  0  0  0  0  0
   -5.8241    0.1476   -0.7283 C   0  0  0  0  0  0  0  0  0  0  0  0
    5.4614    1.4826   -1.5382 H   0  0  0  0  0  0  0  0  0  0  0  0
    4.8888    2.6553    0.6052 H   0  0  0  0  0  0  0  0  0  0  0  0
    8.0810    2.0464    0.3336 H   0  0  0  0  0  0  0  0  0  0  0  0
    8.4559   -0.1725    1.6473 H   0  0  0  0  0  0  0  0  0  0  0  0
    6.8336   -2.4899    2.4927 H   0  0  0  0  0  0  0  0  0  0  0  0
    3.0465   -0.5019   -1.7517 H   0  0  0  0  0  0  0  0  0  0  0  0
    0.4560   -0.1827   -2.0312 H   0  0  0  0  0  0  0  0  0  0  0  0
   -1.4950   -0.5018    2.5184 H   0  0  0  0  0  0  0  0  0  0  0  0
   -4.0888   -0.2114    1.8898 H   0  0  0  0  0  0  0  0  0  0  0  0
   -1.8449   -0.1521   -1.6550 H   0  0  0  0  0  0  0  0  0  0  0  0
   -6.5391    0.4761   -3.9824 H   0  0  0  0  0  0  0  0  0  0  0  0
   -8.9667    0.3482    0.2711 H   0  0  0  0  0  0  0  0  0  0  0  0
   -6.4824    0.0313    1.4213 H   0  0  0  0  0  0  0  0  0  0  0  0
  1  2  1  0
  2  3  2  0
  3  4  1  0
  4  5  2  0
  5  6  1  0
  6  7  1  0
  7  8  2  0
  7  9  1  0
  9 10  2  0
 10 11  1  0
 11 12  2  0
 12 13  1  0
 12 14  1  0
 14 15  2  0
 15 16  1  0
 16 17  2  0
 17 18  1  0
 17 19  1  0
 19 20  1  0
 20 21  1  0
 21 22  2  0
 22 23  1  0
 23 24  1  0
 24 25  2  0
 25 26  1  0
  8  1  1  0
 13  9  1  0
 18 14  1  0
 26 19  2  0
  8  4  1  0
 26 22  1  0
  1 27  1  0
  1 28  1  0
  2 29  1  0
  3 30  1  0
  5 31  1  0
 10 32  1  0
 11 33  1  0
 15 34  1  0
 16 35  1  0
 18 36  1  0
 21 37  1  0
 24 38  1  0
 25 39  1  0
M  END
