
     RDKit          3D

 40 46  0  0  0  0  0  0  0  0999 V2000
    1.9598    1.0621   -0.7793 Si  0  0  0  0  0  4  0  0  0  0  0  0
    3.0663   -0.3465   -0.0552 C   0  0  0  0  0  0  0  0  0  0  0  0
    2.3220   -1.2820    0.5746 C   0  0  0  0  0  0  0  0  0  0  0  0
    0.9291   -0.9805    0.5150 C   0  0  0  0  0  0  0  0  0  0  0  0
   -0.3405   -1.9114    1.1396 S   0  0  0  0  0  0  0  0  0  0  0  0
   -1.5698   -0.7811    0.5946 C   0  0  0  0  0  0  0  0  0  0  0  0
   -0.9142    0.2772   -0.0487 C   0  0  0  0  0  0  0  0  0  0  0  0
    0.4643    0.1610   -0.1098 C   0  0  0  0  0  0  0  0  0  0  0  0
   -1.7336    1.3297   -0.5592 C   0  0  0  0  0  0  0  0  0  0  0  0
   -1.3886    2.4806   -1.2045 C   0  0  0  0  0  0  0  0  0  0  0  0
   -2.5819    3.1284   -1.4560 N   0  0  0  0  0  0  0  0  0  0  0  0
   -3.6386    2.3750   -0.9767 C   0  0  0  0  0  0  0  0  0  0  0  0
   -3.1256    1.2309   -0.3962 C   0  0  0  0  0  0  0  0  0  0  0  0
   -3.8681    0.2037    0.2204 C   0  0  0  0  0  0  0  0  0  0  0  0
   -5.2952    0.1883    0.3286 C   0  0  0  0  0  0  0  0  0  0  0  0
   -5.9947   -0.8546    0.9434 C   0  0  0  0  0  0  0  0  0  0  0  0
   -5.2122   -1.9121    1.4685 C   0  0  0  0  0  0  0  0  0  0  0  0
   -5.7114   -2.9953    2.0858 N   0  0  0  0  0  0  0  0  0  0  0  0
   -4.4148   -3.9322    2.5169 S   0  0  0  0  0  0  0  0  0  0  0  0
   -3.1680   -3.0162    1.9399 N   0  0  0  0  0  0  0  0  0  0  0  0
   -3.6952   -1.9136    1.3699 C   0  0  0  0  0  0  0  0  0  0  0  0
   -3.0013   -0.8356    0.7299 C   0  0  0  0  0  0  0  0  0  0  0  0
    4.5159   -0.3172   -0.2004 C   0  0  0  0  0  0  0  0  0  0  0  0
    5.3449   -0.3048    0.9244 C   0  0  0  0  0  0  0  0  0  0  0  0
    6.7287   -0.2655    0.7651 C   0  0  0  0  0  0  0  0  0  0  0  0
    7.2436   -0.2433   -0.5196 C   0  0  0  0  0  0  0  0  0  0  0  0
    6.4800   -0.2577   -1.6354 N   0  0  0  0  0  0  0  0  0  0  0  0
    5.1389   -0.3011   -1.4468 C   0  0  0  0  0  0  0  0  0  0  0  0
    2.0469    1.0844   -2.2609 H   0  0  0  0  0  0  0  0  0  0  0  0
    2.2345    2.3647   -0.1185 H   0  0  0  0  0  0  0  0  0  0  0  0
    2.7146   -2.1671    1.0632 H   0  0  0  0  0  0  0  0  0  0  0  0
   -0.4544    2.9259   -1.5102 H   0  0  0  0  0  0  0  0  0  0  0  0
   -2.6719    4.0262   -1.9179 H   0  0  0  0  0  0  0  0  0  0  0  0
   -4.6486    2.7432   -1.0971 H   0  0  0  0  0  0  0  0  0  0  0  0
   -5.8765    1.0135   -0.0847 H   0  0  0  0  0  0  0  0  0  0  0  0
   -7.0756   -0.8597    1.0164 H   0  0  0  0  0  0  0  0  0  0  0  0
    4.9216   -0.3178    1.9263 H   0  0  0  0  0  0  0  0  0  0  0  0
    7.3889   -0.2516    1.6263 H   0  0  0  0  0  0  0  0  0  0  0  0
    8.3156   -0.2127   -0.6951 H   0  0  0  0  0  0  0  0  0  0  0  0
    4.5649   -0.3353   -2.3675 H   0  0  0  0  0  0  0  0  0  0  0  0
  1  2  1  0
  2  3  2  0
  3  4  1  0
  4  5  1  0
  5  6  1  0
  6  7  2  0
  7  8  1  0
  7  9  1  0
  9 10  2  0
 10 11  1  0
 11 12  1  0
 12 13  2  0
 13 14  1  0
 14 15  1  0
 15 16  2  0
 16 17  1  0
 17 18  2  0
 18 19  1  0
 19 20  1  0
 20 21  2  0
 21 22  1  0
  2 23  1  0
 23 24  2  0
 24 25  1  0
 25 26  2  0
 26 27  1  0
 27 28  2  0
  8  1  1  0
 13  9  1  0
 22 14  2  0
 28 23  1  0
  8  4  2  0
 21 17  1  0
 22  6  1  0
  1 29  1  0
  1 30  1  0
  3 31  1  0
 10 32  1  0
 11 33  1  0
 12 34  1  0
 15 35  1  0
 16 36  1  0
 24 37  1  0
 25 38  1  0
 26 39  1  0
 28 40  1  0
M  END
