
     RDKit          3D

 44 50  0  0  0  0  0  0  0  0999 V2000
   -5.7031   -0.2783    1.9109 Si  0  0  0  0  0  4  0  0  0  0  0  0
   -7.6097   -0.1296    1.8514 C   0  0  0  0  0  0  0  0  0  0  0  0
   -8.0384    0.2132    0.6173 C   0  0  0  0  0  0  0  0  0  0  0  0
   -7.0004    0.3864   -0.3532 C   0  0  0  0  0  0  0  0  0  0  0  0
   -7.0633    0.7227   -1.6773 C   0  0  0  0  0  0  0  0  0  0  0  0
   -5.4792    0.7757   -2.3707 S   0  0  0  0  0  0  0  0  0  0  0  0
   -4.7128    0.3410   -0.8802 C   0  0  0  0  0  0  0  0  0  0  0  0
   -5.6640    0.1821    0.0830 C   0  0  0  0  0  0  0  0  0  0  0  0
   -3.2724    0.2216   -0.8222 C   0  0  0  0  0  0  0  0  0  0  0  0
   -2.4303    1.2037   -0.3085 C   0  0  0  0  0  0  0  0  0  0  0  0
   -1.0653    1.1454   -0.1953 N   0  0  0  0  0  0  0  0  0  0  0  0
   -0.3455    0.0488   -0.6217 C   0  0  0  0  0  0  0  0  0  0  0  0
    1.1074    0.0729   -0.4457 C   0  0  0  0  0  0  0  0  0  0  0  0
    1.6980    0.8047    0.5922 C   0  0  0  0  0  0  0  0  0  0  0  0
    3.0851    0.8224    0.7634 C   0  0  0  0  0  0  0  0  0  0  0  0
    3.8920    0.1041   -0.1136 C   0  0  0  0  0  0  0  0  0  0  0  0
    3.3531   -0.5868   -1.1498 N   0  0  0  0  0  0  0  0  0  0  0  0
    1.9997   -0.5912   -1.2832 C   0  0  0  0  0  0  0  0  0  0  0  0
    5.3557    0.0678   -0.0352 C   0  0  0  0  0  0  0  0  0  0  0  0
    6.1769    0.0081   -1.1939 C   0  0  0  0  0  0  0  0  0  0  0  0
    7.5911   -0.0344   -1.1742 C   0  0  0  0  0  0  0  0  0  0  0  0
    8.3358   -0.0256    0.0116 C   0  0  0  0  0  0  0  0  0  0  0  0
    7.5907    0.0199    1.2129 C   0  0  0  0  0  0  0  0  0  0  0  0
    8.1160    0.0338    2.4473 N   0  0  0  0  0  0  0  0  0  0  0  0
    6.8384    0.0370    3.5032 S   0  0  0  0  0  0  0  0  0  0  0  0
    5.5628    0.0586    2.4476 N   0  0  0  0  0  0  0  0  0  0  0  0
    6.0744    0.0586    1.2007 C   0  0  0  0  0  0  0  0  0  0  0  0
   -1.0901   -1.0398   -1.1643 C   0  0  0  0  0  0  0  0  0  0  0  0
   -0.6218   -2.2191   -1.6140 N   0  0  0  0  0  0  0  0  0  0  0  0
   -1.9284   -3.1089   -2.1044 S   0  0  0  0  0  0  0  0  0  0  0  0
   -3.1577   -2.0543   -1.7717 N   0  0  0  0  0  0  0  0  0  0  0  0
   -2.5987   -0.9426   -1.2602 C   0  0  0  0  0  0  0  0  0  0  0  0
   -5.1154    0.7623    2.7845 H   0  0  0  0  0  0  0  0  0  0  0  0
   -5.2736   -1.6716    2.2067 H   0  0  0  0  0  0  0  0  0  0  0  0
   -8.2079   -0.3129    2.7289 H   0  0  0  0  0  0  0  0  0  0  0  0
   -9.0852    0.3479    0.3677 H   0  0  0  0  0  0  0  0  0  0  0  0
   -7.9299    0.9349   -2.2864 H   0  0  0  0  0  0  0  0  0  0  0  0
   -2.8544    2.1390    0.0579 H   0  0  0  0  0  0  0  0  0  0  0  0
    1.0770    1.3762    1.2822 H   0  0  0  0  0  0  0  0  0  0  0  0
    3.5112    1.4104    1.5725 H   0  0  0  0  0  0  0  0  0  0  0  0
    1.6598   -1.1586   -2.1446 H   0  0  0  0  0  0  0  0  0  0  0  0
    5.6836   -0.0067   -2.1698 H   0  0  0  0  0  0  0  0  0  0  0  0
    8.1204   -0.0794   -2.1255 H   0  0  0  0  0  0  0  0  0  0  0  0
    9.4185   -0.0592    0.0160 H   0  0  0  0  0  0  0  0  0  0  0  0
  1  2  1  0
  2  3  2  0
  3  4  1  0
  4  5  2  0
  5  6  1  0
  6  7  1  0
  7  8  2  0
  7  9  1  0
  9 10  2  0
 10 11  1  0
 11 12  2  0
 12 13  1  0
 13 14  2  0
 14 15  1  0
 15 16  2  0
 16 17  1  0
 17 18  2  0
 16 19  1  0
 19 20  2  0
 20 21  1  0
 21 22  2  0
 22 23  1  0
 23 24  2  0
 24 25  1  0
 25 26  1  0
 26 27  2  0
 12 28  1  0
 28 29  2  0
 29 30  1  0
 30 31  1  0
 31 32  2  0
  8  1  1  0
 32  9  1  0
  8  4  1  0
 18 13  1  0
 27 19  1  0
 32 28  1  0
 27 23  1  0
  1 33  1  0
  1 34  1  0
  2 35  1  0
  3 36  1  0
  5 37  1  0
 10 38  1  0
 14 39  1  0
 15 40  1  0
 18 41  1  0
 20 42  1  0
 21 43  1  0
 22 44  1  0
M  END
