
     RDKit          3D

 38 42  0  0  0  0  0  0  0  0999 V2000
    5.4919    1.7140    0.4931 Si  0  0  0  0  0  4  0  0  0  0  0  0
    7.0084    0.8038   -0.1571 C   0  0  0  0  0  0  0  0  0  0  0  0
    6.7227   -0.4774   -0.4621 C   0  0  0  0  0  0  0  0  0  0  0  0
    5.3366   -0.8746   -0.2519 C   0  0  0  0  0  0  0  0  0  0  0  0
    4.5277    0.0950    0.2333 C   0  0  0  0  0  0  0  0  0  0  0  0
    3.1307   -0.0018    0.5226 C   0  0  0  0  0  0  0  0  0  0  0  0
    1.8174    0.1382   -0.8499 Si  0  0  0  0  0  4  0  0  0  0  0  0
    0.5160   -0.1332    0.4903 C   0  0  0  0  0  0  0  0  0  0  0  0
    1.0916   -0.2889    1.7026 C   0  0  0  0  0  0  0  0  0  0  0  0
    2.5466   -0.2162    1.7213 C   0  0  0  0  0  0  0  0  0  0  0  0
   -0.8726   -0.1813    0.2250 C   0  0  0  0  0  0  0  0  0  0  0  0
   -2.0383    0.5653    1.3078 S   0  0  0  0  0  0  0  0  0  0  0  0
   -3.4145    0.1135    0.3649 C   0  0  0  0  0  0  0  0  0  0  0  0
   -4.7749    0.4147    0.7016 C   0  0  0  0  0  0  0  0  0  0  0  0
   -5.2777    1.1642    1.7552 C   0  0  0  0  0  0  0  0  0  0  0  0
   -6.6910    1.1560    1.6512 C   0  0  0  0  0  0  0  0  0  0  0  0
   -6.9824    0.4074    0.5394 C   0  0  0  0  0  0  0  0  0  0  0  0
   -5.8419   -0.0413   -0.0414 O   0  0  0  0  0  0  0  0  0  0  0  0
   -2.9678   -0.5635   -0.7134 C   0  0  0  0  0  0  0  0  0  0  0  0
   -3.7180   -1.1031   -1.7194 N   0  0  0  0  0  0  0  0  0  0  0  0
   -2.7339   -1.6688   -2.5236 C   0  0  0  0  0  0  0  0  0  0  0  0
   -1.4451   -1.4607   -1.9893 C   0  0  0  0  0  0  0  0  0  0  0  0
   -1.5997   -0.7180   -0.7868 C   0  0  0  0  0  0  0  0  0  0  0  0
    5.6393    2.0862    1.9238 H   0  0  0  0  0  0  0  0  0  0  0  0
    5.0575    2.8064   -0.4198 H   0  0  0  0  0  0  0  0  0  0  0  0
    7.9692    1.2930   -0.2375 H   0  0  0  0  0  0  0  0  0  0  0  0
    7.4497   -1.1825   -0.8473 H   0  0  0  0  0  0  0  0  0  0  0  0
    5.0082   -1.8843   -0.4923 H   0  0  0  0  0  0  0  0  0  0  0  0
    1.9062   -0.9891   -1.8173 H   0  0  0  0  0  0  0  0  0  0  0  0
    1.7800    1.5033   -1.4450 H   0  0  0  0  0  0  0  0  0  0  0  0
    0.5503   -0.4733    2.6246 H   0  0  0  0  0  0  0  0  0  0  0  0
    3.0908   -0.3344    2.6558 H   0  0  0  0  0  0  0  0  0  0  0  0
   -4.6897    1.6609    2.5156 H   0  0  0  0  0  0  0  0  0  0  0  0
   -7.4052    1.6365    2.3057 H   0  0  0  0  0  0  0  0  0  0  0  0
   -7.9034    0.1147    0.0532 H   0  0  0  0  0  0  0  0  0  0  0  0
   -4.7292   -1.0746   -1.8072 H   0  0  0  0  0  0  0  0  0  0  0  0
   -3.0291   -2.1871   -3.4262 H   0  0  0  0  0  0  0  0  0  0  0  0
   -0.5264   -1.8189   -2.4354 H   0  0  0  0  0  0  0  0  0  0  0  0
  1  2  1  0
  2  3  2  0
  3  4  1  0
  4  5  2  0
  5  6  1  0
  6  7  1  0
  7  8  1  0
  8  9  2  0
  9 10  1  0
  8 11  1  0
 11 12  1  0
 12 13  1  0
 13 14  1  0
 14 15  2  0
 15 16  1  0
 16 17  2  0
 17 18  1  0
 13 19  2  0
 19 20  1  0
 20 21  1  0
 21 22  2  0
 22 23  1  0
  5  1  1  0
 10  6  2  0
 23 11  2  0
 18 14  1  0
 23 19  1  0
  1 24  1  0
  1 25  1  0
  2 26  1  0
  3 27  1  0
  4 28  1  0
  7 29  1  0
  7 30  1  0
  9 31  1  0
 10 32  1  0
 15 33  1  0
 16 34  1  0
 17 35  1  0
 20 36  1  0
 21 37  1  0
 22 38  1  0
M  END
