
     RDKit          3D

 43 48  0  0  0  0  0  0  0  0999 V2000
   -6.4274   -1.5536   -0.3133 Si  0  0  0  0  0  4  0  0  0  0  0  0
   -7.9708   -0.5094   -0.5731 C   0  0  0  0  0  0  0  0  0  0  0  0
   -7.6683    0.7984   -0.6659 C   0  0  0  0  0  0  0  0  0  0  0  0
   -6.2538    1.1187   -0.5496 C   0  0  0  0  0  0  0  0  0  0  0  0
   -5.4395    0.0602   -0.3571 C   0  0  0  0  0  0  0  0  0  0  0  0
   -3.9908    0.0880   -0.2235 C   0  0  0  0  0  0  0  0  0  0  0  0
   -3.3541   -0.2802    0.9603 C   0  0  0  0  0  0  0  0  0  0  0  0
   -1.9612   -0.2321    1.0433 C   0  0  0  0  0  0  0  0  0  0  0  0
   -1.2228    0.1799   -0.0646 C   0  0  0  0  0  0  0  0  0  0  0  0
   -1.8252    0.5691   -1.2152 N   0  0  0  0  0  0  0  0  0  0  0  0
   -3.1784    0.5117   -1.2696 C   0  0  0  0  0  0  0  0  0  0  0  0
    0.2318    0.2764   -0.0620 C   0  0  0  0  0  0  0  0  0  0  0  0
    0.9541    1.3886   -0.5789 C   0  0  0  0  0  0  0  0  0  0  0  0
    2.3886    1.5179   -0.5727 C   0  0  0  0  0  0  0  0  0  0  0  0
    3.2817    0.5379   -0.0654 C   0  0  0  0  0  0  0  0  0  0  0  0
    4.7219    0.6792   -0.0443 C   0  0  0  0  0  0  0  0  0  0  0  0
    5.3945    1.7157    0.6196 C   0  0  0  0  0  0  0  0  0  0  0  0
    6.7480    1.9444    0.6868 N   0  0  0  0  0  0  0  0  0  0  0  0
    7.6246    1.1131    0.0537 C   0  0  0  0  0  0  0  0  0  0  0  0
    7.1007    0.0240   -0.6691 C   0  0  0  0  0  0  0  0  0  0  0  0
    7.8041   -0.8911   -1.3554 N   0  0  0  0  0  0  0  0  0  0  0  0
    6.6947   -1.9296   -2.0224 S   0  0  0  0  0  0  0  0  0  0  0  0
    5.2805   -1.2709   -1.4631 N   0  0  0  0  0  0  0  0  0  0  0  0
    5.6094   -0.1972   -0.7215 C   0  0  0  0  0  0  0  0  0  0  0  0
    2.5602   -0.5579    0.4227 C   0  0  0  0  0  0  0  0  0  0  0  0
    3.0485   -1.7052    0.9958 C   0  0  0  0  0  0  0  0  0  0  0  0
    2.0162   -2.5384    1.3207 O   0  0  0  0  0  0  0  0  0  0  0  0
    0.8559   -1.9187    0.9530 C   0  0  0  0  0  0  0  0  0  0  0  0
    1.1303   -0.6817    0.4248 C   0  0  0  0  0  0  0  0  0  0  0  0
   -6.1451   -2.4318   -1.4751 H   0  0  0  0  0  0  0  0  0  0  0  0
   -6.4014   -2.1946    1.0255 H   0  0  0  0  0  0  0  0  0  0  0  0
   -8.9511   -0.9553   -0.6330 H   0  0  0  0  0  0  0  0  0  0  0  0
   -8.4048    1.5786   -0.8165 H   0  0  0  0  0  0  0  0  0  0  0  0
   -5.9162    2.1466   -0.6139 H   0  0  0  0  0  0  0  0  0  0  0  0
   -3.9283   -0.5883    1.8306 H   0  0  0  0  0  0  0  0  0  0  0  0
   -1.4718   -0.4929    1.9764 H   0  0  0  0  0  0  0  0  0  0  0  0
   -3.6036    0.8261   -2.2196 H   0  0  0  0  0  0  0  0  0  0  0  0
    0.3793    2.2100   -1.0142 H   0  0  0  0  0  0  0  0  0  0  0  0
    2.8015    2.4310   -1.0062 H   0  0  0  0  0  0  0  0  0  0  0  0
    4.8153    2.4570    1.1733 H   0  0  0  0  0  0  0  0  0  0  0  0
    8.6808    1.3327    0.1347 H   0  0  0  0  0  0  0  0  0  0  0  0
    4.0345   -2.0856    1.2227 H   0  0  0  0  0  0  0  0  0  0  0  0
   -0.0428   -2.4907    1.1354 H   0  0  0  0  0  0  0  0  0  0  0  0
  1  2  1  0
  2  3  2  0
  3  4  1  0
  4  5  2  0
  5  6  1  0
  6  7  2  0
  7  8  1  0
  8  9  2  0
  9 10  1  0
 10 11  2  0
  9 12  1  0
 12 13  2  0
 13 14  1  0
 14 15  2  0
 15 16  1  0
 16 17  2  0
 17 18  1  0
 18 19  2  0
 19 20  1  0
 20 21  2  0
 21 22  1  0
 22 23  1  0
 23 24  2  0
 15 25  1  0
 25 26  2  0
 26 27  1  0
 27 28  1  0
 28 29  2  0
  5  1  1  0
 11  6  1  0
 29 12  1  0
 24 16  1  0
 29 25  1  0
 24 20  1  0
  1 30  1  0
  1 31  1  0
  2 32  1  0
  3 33  1  0
  4 34  1  0
  7 35  1  0
  8 36  1  0
 11 37  1  0
 13 38  1  0
 14 39  1  0
 17 40  1  0
 19 41  1  0
 26 42  1  0
 28 43  1  0
M  END
