
     RDKit          3D

 42 47  0  0  0  0  0  0  0  0999 V2000
    6.7863    0.1808   -0.5824 Si  0  0  0  0  0  4  0  0  0  0  0  0
    7.2300    1.9690   -0.2095 C   0  0  0  0  0  0  0  0  0  0  0  0
    6.1304    2.6820    0.0954 C   0  0  0  0  0  0  0  0  0  0  0  0
    4.8818    1.9327    0.0695 C   0  0  0  0  0  0  0  0  0  0  0  0
    4.9965    0.6278   -0.2558 C   0  0  0  0  0  0  0  0  0  0  0  0
    3.8991   -0.2630   -0.3339 C   0  0  0  0  0  0  0  0  0  0  0  0
    3.8374   -1.6140   -0.6543 C   0  0  0  0  0  0  0  0  0  0  0  0
    2.4825   -2.0214   -0.5873 C   0  0  0  0  0  0  0  0  0  0  0  0
    1.7444   -0.9143   -0.2189 C   0  0  0  0  0  0  0  0  0  0  0  0
    2.6045    0.1394   -0.0792 O   0  0  0  0  0  0  0  0  0  0  0  0
    0.3345   -0.7831   -0.0193 C   0  0  0  0  0  0  0  0  0  0  0  0
   -0.5326    0.6744   -0.3870 S   0  0  0  0  0  0  0  0  0  0  0  0
   -2.0794    0.0143    0.0615 C   0  0  0  0  0  0  0  0  0  0  0  0
   -3.2828    0.8077   -0.0559 C   0  0  0  0  0  0  0  0  0  0  0  0
   -3.4632    2.1080    0.4827 C   0  0  0  0  0  0  0  0  0  0  0  0
   -4.6803    2.8725    0.3646 C   0  0  0  0  0  0  0  0  0  0  0  0
   -5.8430    2.4230   -0.3039 C   0  0  0  0  0  0  0  0  0  0  0  0
   -5.6374    1.1532   -0.8255 C   0  0  0  0  0  0  0  0  0  0  0  0
   -6.5297    0.4061   -1.5458 C   0  0  0  0  0  0  0  0  0  0  0  0
   -5.9482   -0.7812   -1.8988 O   0  0  0  0  0  0  0  0  0  0  0  0
   -4.6742   -0.7832   -1.3967 C   0  0  0  0  0  0  0  0  0  0  0  0
   -4.4399    0.3838   -0.7144 C   0  0  0  0  0  0  0  0  0  0  0  0
   -1.8588   -1.2477    0.4949 C   0  0  0  0  0  0  0  0  0  0  0  0
   -2.5478   -2.3626    1.0388 C   0  0  0  0  0  0  0  0  0  0  0  0
   -1.5876   -3.3650    1.2848 C   0  0  0  0  0  0  0  0  0  0  0  0
   -0.3068   -2.9462    0.9321 N   0  0  0  0  0  0  0  0  0  0  0  0
   -0.5509   -1.6850    0.4623 C   0  0  0  0  0  0  0  0  0  0  0  0
    7.3486   -0.7571    0.4224 H   0  0  0  0  0  0  0  0  0  0  0  0
    7.0537   -0.1799   -1.9977 H   0  0  0  0  0  0  0  0  0  0  0  0
    8.2471    2.3251   -0.2496 H   0  0  0  0  0  0  0  0  0  0  0  0
    6.1410    3.7360    0.3450 H   0  0  0  0  0  0  0  0  0  0  0  0
    3.9426    2.4228    0.3005 H   0  0  0  0  0  0  0  0  0  0  0  0
    4.6744   -2.2443   -0.9212 H   0  0  0  0  0  0  0  0  0  0  0  0
    2.0948   -3.0051   -0.8088 H   0  0  0  0  0  0  0  0  0  0  0  0
   -2.6383    2.5655    1.0316 H   0  0  0  0  0  0  0  0  0  0  0  0
   -4.7008    3.8623    0.8234 H   0  0  0  0  0  0  0  0  0  0  0  0
   -6.7483    3.0067   -0.3882 H   0  0  0  0  0  0  0  0  0  0  0  0
   -7.5455    0.5465   -1.8866 H   0  0  0  0  0  0  0  0  0  0  0  0
   -4.0933   -1.6674   -1.6180 H   0  0  0  0  0  0  0  0  0  0  0  0
   -3.6066   -2.4453    1.2481 H   0  0  0  0  0  0  0  0  0  0  0  0
   -1.7183   -4.3547    1.7040 H   0  0  0  0  0  0  0  0  0  0  0  0
    0.5839   -3.4188    1.0190 H   0  0  0  0  0  0  0  0  0  0  0  0
  1  2  1  0
  2  3  2  0
  3  4  1  0
  4  5  2  0
  5  6  1  0
  6  7  2  0
  7  8  1  0
  8  9  2  0
  9 10  1  0
  9 11  1  0
 11 12  1  0
 12 13  1  0
 13 14  1  0
 14 15  2  0
 15 16  1  0
 16 17  2  0
 17 18  1  0
 18 19  2  0
 19 20  1  0
 20 21  1  0
 21 22  2  0
 13 23  2  0
 23 24  1  0
 24 25  2  0
 25 26  1  0
 26 27  1  0
  5  1  1  0
 10  6  1  0
 27 11  2  0
 22 14  1  0
 27 23  1  0
 22 18  1  0
  1 28  1  0
  1 29  1  0
  2 30  1  0
  3 31  1  0
  4 32  1  0
  7 33  1  0
  8 34  1  0
 15 35  1  0
 16 36  1  0
 17 37  1  0
 19 38  1  0
 21 39  1  0
 24 40  1  0
 25 41  1  0
 26 42  1  0
M  END
