
     RDKit          3D

 42 48  0  0  0  0  0  0  0  0999 V2000
    6.2378   -1.5727    1.3015 Si  0  0  0  0  0  4  0  0  0  0  0  0
    7.8163   -0.7700    0.6747 C   0  0  0  0  0  0  0  0  0  0  0  0
    7.5370    0.3172   -0.0640 C   0  0  0  0  0  0  0  0  0  0  0  0
    6.1209    0.6170   -0.2069 C   0  0  0  0  0  0  0  0  0  0  0  0
    5.2626   -0.2263    0.4150 C   0  0  0  0  0  0  0  0  0  0  0  0
    3.8079   -0.0966    0.3906 C   0  0  0  0  0  0  0  0  0  0  0  0
    3.2839    0.9610   -0.3198 N   0  0  0  0  0  0  0  0  0  0  0  0
    1.9352    1.1809   -0.4113 C   0  0  0  0  0  0  0  0  0  0  0  0
    0.9180    0.4188    0.1568 C   0  0  0  0  0  0  0  0  0  0  0  0
   -0.4894    0.7120    0.0216 C   0  0  0  0  0  0  0  0  0  0  0  0
   -1.5727   -0.3199   -0.8204 S   0  0  0  0  0  0  0  0  0  0  0  0
   -2.9399    0.6948   -0.5235 C   0  0  0  0  0  0  0  0  0  0  0  0
   -4.2487    0.3646   -0.9973 C   0  0  0  0  0  0  0  0  0  0  0  0
   -5.2682    1.4750   -1.8629 S   0  0  0  0  0  0  0  0  0  0  0  0
   -6.5593    0.3256   -2.0468 C   0  0  0  0  0  0  0  0  0  0  0  0
   -6.1693   -0.8198   -1.4533 C   0  0  0  0  0  0  0  0  0  0  0  0
   -6.6274   -2.1321   -1.1849 C   0  0  0  0  0  0  0  0  0  0  0  0
   -5.6026   -2.7888   -0.4707 C   0  0  0  0  0  0  0  0  0  0  0  0
   -4.5032   -1.9572   -0.2668 N   0  0  0  0  0  0  0  0  0  0  0  0
   -4.9155   -0.8079   -0.8824 C   0  0  0  0  0  0  0  0  0  0  0  0
   -2.5023    1.7730    0.1766 C   0  0  0  0  0  0  0  0  0  0  0  0
   -3.1326    2.9264    0.7196 C   0  0  0  0  0  0  0  0  0  0  0  0
   -2.2394    3.7665    1.3933 C   0  0  0  0  0  0  0  0  0  0  0  0
   -0.5651    3.2411    1.4451 S   0  0  0  0  0  0  0  0  0  0  0  0
   -1.1430    1.8140    0.4983 C   0  0  0  0  0  0  0  0  0  0  0  0
    1.3865   -0.6849    0.9089 C   0  0  0  0  0  0  0  0  0  0  0  0
    0.6314   -1.5766    1.5783 N   0  0  0  0  0  0  0  0  0  0  0  0
    1.6655   -2.6548    2.2856 S   0  0  0  0  0  0  0  0  0  0  0  0
    3.1221   -2.0524    1.7873 N   0  0  0  0  0  0  0  0  0  0  0  0
    2.8751   -0.9624    1.0365 C   0  0  0  0  0  0  0  0  0  0  0  0
    6.1558   -1.4864    2.7817 H   0  0  0  0  0  0  0  0  0  0  0  0
    6.0605   -2.9212    0.7054 H   0  0  0  0  0  0  0  0  0  0  0  0
    8.7906   -1.1694    0.9067 H   0  0  0  0  0  0  0  0  0  0  0  0
    8.2884    0.9425   -0.5302 H   0  0  0  0  0  0  0  0  0  0  0  0
    5.8075    1.4779   -0.7879 H   0  0  0  0  0  0  0  0  0  0  0  0
    1.6857    2.0581   -1.0093 H   0  0  0  0  0  0  0  0  0  0  0  0
   -7.4761    0.5781   -2.5593 H   0  0  0  0  0  0  0  0  0  0  0  0
   -7.5767   -2.5716   -1.4611 H   0  0  0  0  0  0  0  0  0  0  0  0
   -5.5706   -3.8003   -0.0859 H   0  0  0  0  0  0  0  0  0  0  0  0
   -3.6194   -2.1267    0.2001 H   0  0  0  0  0  0  0  0  0  0  0  0
   -4.1887    3.1548    0.6395 H   0  0  0  0  0  0  0  0  0  0  0  0
   -2.4784    4.6992    1.8865 H   0  0  0  0  0  0  0  0  0  0  0  0
  1  2  1  0
  2  3  2  0
  3  4  1  0
  4  5  2  0
  5  6  1  0
  6  7  2  0
  7  8  1  0
  8  9  2  0
  9 10  1  0
 10 11  1  0
 11 12  1  0
 12 13  1  0
 13 14  1  0
 14 15  1  0
 15 16  2  0
 16 17  1  0
 17 18  2  0
 18 19  1  0
 19 20  1  0
 12 21  2  0
 21 22  1  0
 22 23  2  0
 23 24  1  0
 24 25  1  0
  9 26  1  0
 26 27  2  0
 27 28  1  0
 28 29  1  0
 29 30  2  0
  5  1  1  0
 30  6  1  0
 25 10  2  0
 30 26  1  0
 20 13  2  0
 25 21  1  0
 20 16  1  0
  1 31  1  0
  1 32  1  0
  2 33  1  0
  3 34  1  0
  4 35  1  0
  8 36  1  0
 15 37  1  0
 17 38  1  0
 18 39  1  0
 19 40  1  0
 22 41  1  0
 23 42  1  0
M  END
