
     RDKit          3D

 42 47  0  0  0  0  0  0  0  0999 V2000
   -4.6122    2.4338   -1.3553 Si  0  0  0  0  0  4  0  0  0  0  0  0
   -6.3391    2.5706   -0.6054 C   0  0  0  0  0  0  0  0  0  0  0  0
   -6.5732    1.5668    0.2599 C   0  0  0  0  0  0  0  0  0  0  0  0
   -5.4788    0.6203    0.4203 C   0  0  0  0  0  0  0  0  0  0  0  0
   -4.3788    0.8891   -0.3117 C   0  0  0  0  0  0  0  0  0  0  0  0
   -3.2162    0.0841   -0.3340 C   0  0  0  0  0  0  0  0  0  0  0  0
   -1.6735    0.7510    0.1097 S   0  0  0  0  0  0  0  0  0  0  0  0
   -0.8178   -0.7379   -0.1112 C   0  0  0  0  0  0  0  0  0  0  0  0
    0.5957   -0.8240    0.1288 C   0  0  0  0  0  0  0  0  0  0  0  0
    1.3950   -1.8978    0.4687 C   0  0  0  0  0  0  0  0  0  0  0  0
    2.7307   -1.4306    0.5788 C   0  0  0  0  0  0  0  0  0  0  0  0
    2.7315   -0.0759    0.3123 C   0  0  0  0  0  0  0  0  0  0  0  0
    1.4263    0.2710    0.0520 N   0  0  0  0  0  0  0  0  0  0  0  0
    3.8098    0.8693    0.2912 C   0  0  0  0  0  0  0  0  0  0  0  0
    3.5647    2.5626   -0.0698 S   0  0  0  0  0  0  0  0  0  0  0  0
    5.2414    2.9690    0.1015 C   0  0  0  0  0  0  0  0  0  0  0  0
    5.9076    1.8411    0.4161 C   0  0  0  0  0  0  0  0  0  0  0  0
    7.2487    1.7234    0.6377 N   0  0  0  0  0  0  0  0  0  0  0  0
    7.3587    0.3631    0.9140 C   0  0  0  0  0  0  0  0  0  0  0  0
    6.1046   -0.2816    0.8513 C   0  0  0  0  0  0  0  0  0  0  0  0
    5.1347    0.7047    0.5190 C   0  0  0  0  0  0  0  0  0  0  0  0
   -1.7044   -1.6895   -0.5211 C   0  0  0  0  0  0  0  0  0  0  0  0
   -1.6381   -3.5064   -1.0212 Si  0  0  0  0  0  4  0  0  0  0  0  0
   -3.5155   -3.4490   -1.3397 C   0  0  0  0  0  0  0  0  0  0  0  0
   -4.0151   -2.2199   -1.0904 C   0  0  0  0  0  0  0  0  0  0  0  0
   -3.0545   -1.2477   -0.6481 C   0  0  0  0  0  0  0  0  0  0  0  0
   -3.7557    3.5762   -0.9463 H   0  0  0  0  0  0  0  0  0  0  0  0
   -4.6800    2.1627   -2.8139 H   0  0  0  0  0  0  0  0  0  0  0  0
   -7.0074    3.3742   -0.8707 H   0  0  0  0  0  0  0  0  0  0  0  0
   -7.4982    1.4467    0.8105 H   0  0  0  0  0  0  0  0  0  0  0  0
   -5.5761   -0.2262    1.0898 H   0  0  0  0  0  0  0  0  0  0  0  0
    1.0685   -2.9140    0.6404 H   0  0  0  0  0  0  0  0  0  0  0  0
    3.5939   -2.0300    0.8340 H   0  0  0  0  0  0  0  0  0  0  0  0
    1.1168    1.2072   -0.1701 H   0  0  0  0  0  0  0  0  0  0  0  0
    5.6138    3.9742   -0.0353 H   0  0  0  0  0  0  0  0  0  0  0  0
    7.9535    2.4496    0.6037 H   0  0  0  0  0  0  0  0  0  0  0  0
    8.3341   -0.0496    1.1378 H   0  0  0  0  0  0  0  0  0  0  0  0
    5.9402   -1.3354    1.0287 H   0  0  0  0  0  0  0  0  0  0  0  0
   -0.9034   -3.7688   -2.2840 H   0  0  0  0  0  0  0  0  0  0  0  0
   -1.3179   -4.4328    0.0942 H   0  0  0  0  0  0  0  0  0  0  0  0
   -4.0510   -4.3203   -1.6801 H   0  0  0  0  0  0  0  0  0  0  0  0
   -5.0632   -1.9733   -1.2173 H   0  0  0  0  0  0  0  0  0  0  0  0
  1  2  1  0
  2  3  2  0
  3  4  1  0
  4  5  2  0
  5  6  1  0
  6  7  1  0
  7  8  1  0
  8  9  1  0
  9 10  2  0
 10 11  1  0
 11 12  2  0
 12 13  1  0
 12 14  1  0
 14 15  1  0
 15 16  1  0
 16 17  2  0
 17 18  1  0
 18 19  1  0
 19 20  2  0
 20 21  1  0
  8 22  2  0
 22 23  1  0
 23 24  1  0
 24 25  2  0
 25 26  1  0
  5  1  1  0
 26  6  2  0
 13  9  1  0
 21 14  2  0
 26 22  1  0
 21 17  1  0
  1 27  1  0
  1 28  1  0
  2 29  1  0
  3 30  1  0
  4 31  1  0
 10 32  1  0
 11 33  1  0
 13 34  1  0
 16 35  1  0
 18 36  1  0
 19 37  1  0
 20 38  1  0
 23 39  1  0
 23 40  1  0
 24 41  1  0
 25 42  1  0
M  END
