
     RDKit          3D

 35 38  0  0  0  0  0  0  0  0999 V2000
   -2.2814   -0.0593    0.8540 Si  0  0  0  0  0  4  0  0  0  0  0  0
   -3.6045    0.1533   -0.4513 C   0  0  0  0  0  0  0  0  0  0  0  0
   -3.0536    0.2816   -1.6739 C   0  0  0  0  0  0  0  0  0  0  0  0
   -1.5972    0.2281   -1.7040 C   0  0  0  0  0  0  0  0  0  0  0  0
   -0.9784    0.0549   -0.5121 C   0  0  0  0  0  0  0  0  0  0  0  0
    0.4699   -0.0236   -0.2987 C   0  0  0  0  0  0  0  0  0  0  0  0
    1.0732   -0.2567    0.9353 C   0  0  0  0  0  0  0  0  0  0  0  0
    2.4690   -0.3113    1.0254 C   0  0  0  0  0  0  0  0  0  0  0  0
    3.2528   -0.1339   -0.1130 C   0  0  0  0  0  0  0  0  0  0  0  0
    2.5690    0.0865   -1.3020 C   0  0  0  0  0  0  0  0  0  0  0  0
    1.2181    0.1468   -1.4163 N   0  0  0  0  0  0  0  0  0  0  0  0
    4.7136   -0.1845   -0.0685 C   0  0  0  0  0  0  0  0  0  0  0  0
    5.6292   -0.6110   -1.0182 C   0  0  0  0  0  0  0  0  0  0  0  0
    6.9312   -0.4435   -0.4887 C   0  0  0  0  0  0  0  0  0  0  0  0
    6.7910    0.0913    0.7693 C   0  0  0  0  0  0  0  0  0  0  0  0
    5.4522    0.2477    1.0138 N   0  0  0  0  0  0  0  0  0  0  0  0
   -4.9862    0.1709   -0.1513 C   0  0  0  0  0  0  0  0  0  0  0  0
   -6.0862    0.3173   -0.9941 C   0  0  0  0  0  0  0  0  0  0  0  0
   -7.2607    0.2671   -0.2066 C   0  0  0  0  0  0  0  0  0  0  0  0
   -6.8352    0.0926    1.0833 C   0  0  0  0  0  0  0  0  0  0  0  0
   -5.4837    0.0338    1.1303 O   0  0  0  0  0  0  0  0  0  0  0  0
   -2.2619   -1.3998    1.4979 H   0  0  0  0  0  0  0  0  0  0  0  0
   -2.1631    1.0816    1.8008 H   0  0  0  0  0  0  0  0  0  0  0  0
   -3.6048    0.4167   -2.5959 H   0  0  0  0  0  0  0  0  0  0  0  0
   -1.0680    0.3256   -2.6461 H   0  0  0  0  0  0  0  0  0  0  0  0
    0.4966   -0.4089    1.8403 H   0  0  0  0  0  0  0  0  0  0  0  0
    2.9222   -0.5168    1.9910 H   0  0  0  0  0  0  0  0  0  0  0  0
    3.1002    0.2389   -2.2377 H   0  0  0  0  0  0  0  0  0  0  0  0
    5.3870   -1.0148   -1.9935 H   0  0  0  0  0  0  0  0  0  0  0  0
    7.8674   -0.6849   -0.9754 H   0  0  0  0  0  0  0  0  0  0  0  0
    7.5263    0.3778    1.5092 H   0  0  0  0  0  0  0  0  0  0  0  0
    5.0630    0.6457    1.8576 H   0  0  0  0  0  0  0  0  0  0  0  0
   -6.0405    0.4466   -2.0666 H   0  0  0  0  0  0  0  0  0  0  0  0
   -8.2853    0.3481   -0.5400 H   0  0  0  0  0  0  0  0  0  0  0  0
   -7.3412   -0.0038    2.0336 H   0  0  0  0  0  0  0  0  0  0  0  0
  1  2  1  0
  2  3  2  0
  3  4  1  0
  4  5  2  0
  5  6  1  0
  6  7  2  0
  7  8  1  0
  8  9  2  0
  9 10  1  0
 10 11  2  0
  9 12  1  0
 12 13  2  0
 13 14  1  0
 14 15  2  0
 15 16  1  0
  2 17  1  0
 17 18  2  0
 18 19  1  0
 19 20  2  0
 20 21  1  0
  5  1  1  0
 11  6  1  0
 16 12  1  0
 21 17  1  0
  1 22  1  0
  1 23  1  0
  3 24  1  0
  4 25  1  0
  7 26  1  0
  8 27  1  0
 10 28  1  0
 13 29  1  0
 14 30  1  0
 15 31  1  0
 16 32  1  0
 18 33  1  0
 19 34  1  0
 20 35  1  0
M  END
