
     RDKit          3D

 40 45  0  0  0  0  0  0  0  0999 V2000
   -5.5972   -0.8532    1.2126 Si  0  0  0  0  0  4  0  0  0  0  0  0
   -6.6327    0.5935    1.8418 C   0  0  0  0  0  0  0  0  0  0  0  0
   -5.9434    1.7460    1.7763 C   0  0  0  0  0  0  0  0  0  0  0  0
   -4.5855    1.6299    1.2639 C   0  0  0  0  0  0  0  0  0  0  0  0
   -4.1948    0.3832    0.9194 C   0  0  0  0  0  0  0  0  0  0  0  0
   -2.9093    0.0130    0.4289 C   0  0  0  0  0  0  0  0  0  0  0  0
   -1.4906    0.8523    0.9831 S   0  0  0  0  0  0  0  0  0  0  0  0
   -0.4122   -0.0883    0.0405 C   0  0  0  0  0  0  0  0  0  0  0  0
    1.0058    0.1492    0.0874 C   0  0  0  0  0  0  0  0  0  0  0  0
    2.0817   -1.0697    0.6416 S   0  0  0  0  0  0  0  0  0  0  0  0
    3.4796   -0.0845    0.4182 C   0  0  0  0  0  0  0  0  0  0  0  0
    4.7968   -0.6281    0.7192 C   0  0  0  0  0  0  0  0  0  0  0  0
    5.7700   -0.3808   -0.1589 N   0  0  0  0  0  0  0  0  0  0  0  0
    6.9446   -0.9065    0.1708 C   0  0  0  0  0  0  0  0  0  0  0  0
    7.2000   -1.6386    1.2532 N   0  0  0  0  0  0  0  0  0  0  0  0
    6.1442   -1.8240    2.0429 C   0  0  0  0  0  0  0  0  0  0  0  0
    4.9191   -1.3511    1.8368 N   0  0  0  0  0  0  0  0  0  0  0  0
    3.1232    1.1575   -0.0595 C   0  0  0  0  0  0  0  0  0  0  0  0
    4.0134    2.1639   -0.3088 N   0  0  0  0  0  0  0  0  0  0  0  0
    3.3872    3.2759   -0.7749 C   0  0  0  0  0  0  0  0  0  0  0  0
    2.0094    3.3991   -0.9728 C   0  0  0  0  0  0  0  0  0  0  0  0
    1.0947    2.4254   -0.7252 N   0  0  0  0  0  0  0  0  0  0  0  0
    1.6947    1.2912   -0.2546 C   0  0  0  0  0  0  0  0  0  0  0  0
   -1.0953   -1.0321   -0.6888 C   0  0  0  0  0  0  0  0  0  0  0  0
   -0.4903   -1.9181   -1.5360 N   0  0  0  0  0  0  0  0  0  0  0  0
   -1.4013   -2.7318   -2.1292 C   0  0  0  0  0  0  0  0  0  0  0  0
   -2.7805   -2.6849   -1.9114 C   0  0  0  0  0  0  0  0  0  0  0  0
   -3.4118   -1.8187   -1.0755 N   0  0  0  0  0  0  0  0  0  0  0  0
   -2.5242   -0.9783   -0.4620 C   0  0  0  0  0  0  0  0  0  0  0  0
   -6.2199   -1.4146   -0.0132 H   0  0  0  0  0  0  0  0  0  0  0  0
   -5.3135   -1.8167    2.3076 H   0  0  0  0  0  0  0  0  0  0  0  0
   -7.6437    0.4545    2.1895 H   0  0  0  0  0  0  0  0  0  0  0  0
   -6.3420    2.7059    2.0813 H   0  0  0  0  0  0  0  0  0  0  0  0
   -3.9677    2.5166    1.1871 H   0  0  0  0  0  0  0  0  0  0  0  0
    7.7721   -0.7233   -0.5065 H   0  0  0  0  0  0  0  0  0  0  0  0
    6.2979   -2.4166    2.9385 H   0  0  0  0  0  0  0  0  0  0  0  0
    4.0467    4.1101   -0.9979 H   0  0  0  0  0  0  0  0  0  0  0  0
    1.5940    4.3289   -1.3512 H   0  0  0  0  0  0  0  0  0  0  0  0
   -0.9821   -3.4596   -2.8183 H   0  0  0  0  0  0  0  0  0  0  0  0
   -3.4374   -3.3767   -2.4317 H   0  0  0  0  0  0  0  0  0  0  0  0
  1  2  1  0
  2  3  2  0
  3  4  1  0
  4  5  2  0
  5  6  1  0
  6  7  1  0
  7  8  1  0
  8  9  1  0
  9 10  1  0
 10 11  1  0
 11 12  1  0
 12 13  2  0
 13 14  1  0
 14 15  2  0
 15 16  1  0
 16 17  2  0
 11 18  2  0
 18 19  1  0
 19 20  2  0
 20 21  1  0
 21 22  2  0
 22 23  1  0
  8 24  2  0
 24 25  1  0
 25 26  2  0
 26 27  1  0
 27 28  2  0
 28 29  1  0
  5  1  1  0
 29  6  2  0
 23  9  2  0
 29 24  1  0
 17 12  1  0
 23 18  1  0
  1 30  1  0
  1 31  1  0
  2 32  1  0
  3 33  1  0
  4 34  1  0
 14 35  1  0
 16 36  1  0
 20 37  1  0
 21 38  1  0
 26 39  1  0
 27 40  1  0
M  END
