
     RDKit          3D

 32 33  0  0  0  0  0  0  0  0999 V2000
    5.0605   -1.6740   -0.7411 Br  0  0  0  0  0  0  0  0  0  0  0  0
    3.5448   -0.5745   -0.3100 C   0  0  0  0  0  0  0  0  0  0  0  0
    2.3192   -0.9985   -0.5598 C   0  0  0  0  0  0  0  0  0  0  0  0
    1.2036   -0.1936   -0.2445 N   0  0  0  0  0  0  0  0  0  0  0  0
    1.3958    1.0755    0.3428 C   0  0  0  0  0  0  0  0  0  0  0  0
    2.7766    1.4940    0.5972 C   0  0  0  0  0  0  0  0  0  0  0  0
    3.8016    0.7233    0.2933 C   0  0  0  0  0  0  0  0  0  0  0  0
    0.2601    1.6789    0.5653 N   0  0  0  0  0  0  0  0  0  0  0  0
   -0.3284   -0.3870   -0.4033 B   0  0  0  0  0  4  0  0  0  0  0  0
   -0.5706   -0.5846   -1.8064 O   0  0  0  0  0  0  0  0  0  0  0  0
   -0.7868   -1.8774   -2.2030 C   0  0  0  0  0  0  0  0  0  0  0  0
   -0.7005   -1.4802    0.4563 O   0  0  0  0  0  0  0  0  0  0  0  0
    0.1415   -1.6727    1.5400 C   0  0  0  0  0  0  0  0  0  0  0  0
   -0.8279    0.9137    0.1662 N   0  0  0  0  0  4  0  0  0  0  0  0
   -2.0774    1.2826    0.2764 C   0  0  0  0  0  0  0  0  0  0  0  0
   -2.4321    2.6041    0.8621 C   0  0  0  0  0  0  0  0  0  0  0  0
   -3.1913    0.4116   -0.1720 C   0  0  0  0  0  0  0  0  0  0  0  0
    2.1525   -1.9723   -1.0113 H   0  0  0  0  0  0  0  0  0  0  0  0
    2.9726    2.4586    1.0459 H   0  0  0  0  0  0  0  0  0  0  0  0
    4.8397    1.0560    0.4929 H   0  0  0  0  0  0  0  0  0  0  0  0
   -1.8052   -2.2302   -1.9644 H   0  0  0  0  0  0  0  0  0  0  0  0
   -0.6434   -1.9037   -3.3221 H   0  0  0  0  0  0  0  0  0  0  0  0
   -0.0345   -2.5881   -1.7997 H   0  0  0  0  0  0  0  0  0  0  0  0
   -0.4283   -2.2677    2.2875 H   0  0  0  0  0  0  0  0  0  0  0  0
    1.0490   -2.1864    1.2108 H   0  0  0  0  0  0  0  0  0  0  0  0
    0.3265   -0.6654    1.9811 H   0  0  0  0  0  0  0  0  0  0  0  0
   -1.7815    2.8364    1.7427 H   0  0  0  0  0  0  0  0  0  0  0  0
   -2.2817    3.4391    0.1462 H   0  0  0  0  0  0  0  0  0  0  0  0
   -3.4607    2.6238    1.2077 H   0  0  0  0  0  0  0  0  0  0  0  0
   -2.8790   -0.3383   -0.9112 H   0  0  0  0  0  0  0  0  0  0  0  0
   -3.5948   -0.0631    0.7708 H   0  0  0  0  0  0  0  0  0  0  0  0
   -4.0200    1.0601   -0.5362 H   0  0  0  0  0  0  0  0  0  0  0  0
  1  2  1  0
  2  3  2  0
  3  4  1  0
  4  5  1  0
  5  6  1  0
  6  7  2  0
  5  8  2  0
  4  9  1  0
  9 10  1  0
 10 11  1  0
  9 12  1  0
 12 13  1  0
  9 14  1  0
 14 15  2  3
 15 16  1  0
 15 17  1  0
  7  2  1  0
 14  8  1  0
  3 18  1  0
  6 19  1  0
  7 20  1  0
 11 21  1  0
 11 22  1  0
 11 23  1  0
 13 24  1  0
 13 25  1  0
 13 26  1  0
 16 27  1  0
 16 28  1  0
 16 29  1  0
 17 30  1  0
 17 31  1  0
 17 32  1  0
M  CHG  2   9  -1  14   1
M  END
