
     RDKit          3D

 34 37  0  0  0  0  0  0  0  0999 V2000
    8.0563    2.1097    2.8276 Br  0  0  0  0  0  0  0  0  0  0  0  0
    7.1169    1.0434    1.5632 C   0  0  0  0  0  0  0  0  0  0  0  0
    7.6865    0.0963    0.7444 C   0  0  0  0  0  0  0  0  0  0  0  0
    6.6274   -0.4457   -0.0248 C   0  0  0  0  0  0  0  0  0  0  0  0
    5.4739    0.2045    0.3726 C   0  0  0  0  0  0  0  0  0  0  0  0
    4.0397   -0.0477   -0.1892 C   0  0  0  0  0  0  0  0  0  0  0  0
    3.7828   -0.9464   -1.1513 N   0  0  0  0  0  0  0  0  0  0  0  0
    2.4030   -0.8391   -1.3326 O   0  0  0  0  0  0  0  0  0  0  0  0
    1.9709    0.1160   -0.4578 C   0  0  0  0  0  0  0  0  0  0  0  0
    0.5217    0.4316   -0.4757 C   0  0  0  0  0  0  0  0  0  0  0  0
   -0.1680   -0.7261   -0.0066 O   0  0  0  0  0  0  0  0  0  0  0  0
   -1.5337   -0.6641    0.0338 C   0  0  0  0  0  0  0  0  0  0  0  0
   -2.1531   -1.8415    0.4525 C   0  0  0  0  0  0  0  0  0  0  0  0
   -3.5441   -1.9221    0.5405 C   0  0  0  0  0  0  0  0  0  0  0  0
   -4.3434   -0.8194    0.2105 C   0  0  0  0  0  0  0  0  0  0  0  0
   -5.7438   -0.8811    0.2925 C   0  0  0  0  0  0  0  0  0  0  0  0
   -6.5265    0.2258   -0.0382 C   0  0  0  0  0  0  0  0  0  0  0  0
   -5.9195    1.4067   -0.4542 C   0  0  0  0  0  0  0  0  0  0  0  0
   -4.5283    1.4833   -0.5409 C   0  0  0  0  0  0  0  0  0  0  0  0
   -3.7242    0.3788   -0.2125 C   0  0  0  0  0  0  0  0  0  0  0  0
   -2.3198    0.4422   -0.2956 C   0  0  0  0  0  0  0  0  0  0  0  0
    2.9397    0.6425    0.2580 N   0  0  0  0  0  0  0  0  0  0  0  0
    5.7783    1.1165    1.3452 O   0  0  0  0  0  0  0  0  0  0  0  0
    8.7329   -0.1719    0.7051 H   0  0  0  0  0  0  0  0  0  0  0  0
    6.6900   -1.2185   -0.7792 H   0  0  0  0  0  0  0  0  0  0  0  0
    0.2182    0.6740   -1.5008 H   0  0  0  0  0  0  0  0  0  0  0  0
    0.3305    1.2835    0.1868 H   0  0  0  0  0  0  0  0  0  0  0  0
   -1.5485   -2.7072    0.7135 H   0  0  0  0  0  0  0  0  0  0  0  0
   -3.9970   -2.8545    0.8698 H   0  0  0  0  0  0  0  0  0  0  0  0
   -6.2362   -1.7954    0.6165 H   0  0  0  0  0  0  0  0  0  0  0  0
   -7.6096    0.1647    0.0302 H   0  0  0  0  0  0  0  0  0  0  0  0
   -6.5282    2.2697   -0.7114 H   0  0  0  0  0  0  0  0  0  0  0  0
   -4.0759    2.4169   -0.8679 H   0  0  0  0  0  0  0  0  0  0  0  0
   -1.8689    1.3746   -0.6192 H   0  0  0  0  0  0  0  0  0  0  0  0
  1  2  1  0
  2  3  2  0
  3  4  1  0
  4  5  2  0
  5  6  1  0
  6  7  2  0
  7  8  1  0
  8  9  1  0
  9 10  1  0
 10 11  1  0
 11 12  1  0
 12 13  2  0
 13 14  1  0
 14 15  2  0
 15 16  1  0
 16 17  2  0
 17 18  1  0
 18 19  2  0
 19 20  1  0
 20 21  2  0
  9 22  2  0
  5 23  1  0
 23  2  1  0
 22  6  1  0
 21 12  1  0
 20 15  1  0
  3 24  1  0
  4 25  1  0
 10 26  1  0
 10 27  1  0
 13 28  1  0
 14 29  1  0
 16 30  1  0
 17 31  1  0
 18 32  1  0
 19 33  1  0
 21 34  1  0
M  END
