
     RDKit          3D

 54 60  0  0  0  0  0  0  0  0999 V2000
   10.5606    1.7923    3.9438 C   0  0  0  0  0  0  0  0  0  0  0  0
    9.5873    1.6443    3.2561 C   0  0  0  0  0  0  0  0  0  0  0  0
    8.4307    1.4667    2.4357 C   0  0  0  0  0  0  0  0  0  0  0  0
    8.0346    2.3659    1.4484 C   0  0  0  0  0  0  0  0  0  0  0  0
    6.8520    1.8900    0.8243 C   0  0  0  0  0  0  0  0  0  0  0  0
    6.4704    0.7145    1.3721 C   0  0  0  0  0  0  0  0  0  0  0  0
    7.3965    0.0774    2.6045 S   0  0  0  0  0  0  0  0  0  0  0  0
    5.3530    0.2763    0.7595 C   0  0  0  0  0  0  0  0  0  0  0  0
    4.4211   -1.0907    0.9724 S   0  0  0  0  0  0  0  0  0  0  0  0
    3.4116   -0.5036   -0.3177 C   0  0  0  0  0  0  0  0  0  0  0  0
    2.2673   -1.2319   -0.7639 C   0  0  0  0  0  0  0  0  0  0  0  0
    1.3057   -1.8433   -1.1426 C   0  0  0  0  0  0  0  0  0  0  0  0
    0.1628   -2.5677   -1.5938 C   0  0  0  0  0  0  0  0  0  0  0  0
    0.2842   -3.9880   -2.5548 S   0  0  0  0  0  0  0  0  0  0  0  0
   -1.4195   -4.1804   -2.6292 C   0  0  0  0  0  0  0  0  0  0  0  0
   -2.0617   -3.1847   -1.9389 C   0  0  0  0  0  0  0  0  0  0  0  0
   -3.4128   -3.1087   -1.8516 N   0  0  0  0  0  0  0  0  0  0  0  0
   -3.8164   -2.0229   -1.1137 C   0  0  0  0  0  0  0  0  0  0  0  0
   -5.2880   -1.8942   -1.0567 C   0  0  0  0  0  0  0  0  0  0  0  0
   -6.0787   -2.9733   -0.6219 C   0  0  0  0  0  0  0  0  0  0  0  0
   -7.4706   -2.8710   -0.5600 C   0  0  0  0  0  0  0  0  0  0  0  0
   -8.0990   -1.6884   -0.9410 C   0  0  0  0  0  0  0  0  0  0  0  0
   -7.3384   -0.6126   -1.3913 C   0  0  0  0  0  0  0  0  0  0  0  0
   -5.9461   -0.7170   -1.4549 C   0  0  0  0  0  0  0  0  0  0  0  0
   -2.9144   -1.1055   -0.4875 C   0  0  0  0  0  0  0  0  0  0  0  0
   -3.3498    0.0153    0.3724 C   0  0  0  0  0  0  0  0  0  0  0  0
   -2.9161    1.3264    0.1048 C   0  0  0  0  0  0  0  0  0  0  0  0
   -3.3160    2.3981    0.9069 C   0  0  0  0  0  0  0  0  0  0  0  0
   -4.1508    2.1765    1.9988 C   0  0  0  0  0  0  0  0  0  0  0  0
   -4.5785    0.8845    2.2939 C   0  0  0  0  0  0  0  0  0  0  0  0
   -4.1763   -0.1871    1.4918 C   0  0  0  0  0  0  0  0  0  0  0  0
   -1.5483   -1.1798   -0.5978 N   0  0  0  0  0  0  0  0  0  0  0  0
   -1.1522   -2.2506   -1.3372 C   0  0  0  0  0  0  0  0  0  0  0  0
    3.8171    0.7123   -0.8623 C   0  0  0  0  0  0  0  0  0  0  0  0
    4.9883    1.1596   -0.1970 C   0  0  0  0  0  0  0  0  0  0  0  0
    5.9215    2.1606   -0.1436 N   0  0  0  0  0  0  0  0  0  0  0  0
    5.9469    3.3130   -1.0049 C   0  0  0  0  0  0  0  0  0  0  0  0
   11.4240    1.9173    4.5539 H   0  0  0  0  0  0  0  0  0  0  0  0
    8.5580    3.2814    1.2057 H   0  0  0  0  0  0  0  0  0  0  0  0
   -1.8624   -5.0035   -3.1709 H   0  0  0  0  0  0  0  0  0  0  0  0
   -5.6044   -3.9093   -0.3305 H   0  0  0  0  0  0  0  0  0  0  0  0
   -8.0617   -3.7174   -0.2199 H   0  0  0  0  0  0  0  0  0  0  0  0
   -9.1819   -1.6080   -0.8952 H   0  0  0  0  0  0  0  0  0  0  0  0
   -7.8271    0.3087   -1.6983 H   0  0  0  0  0  0  0  0  0  0  0  0
   -5.3781    0.1348   -1.8245 H   0  0  0  0  0  0  0  0  0  0  0  0
   -2.2523    1.5157   -0.7373 H   0  0  0  0  0  0  0  0  0  0  0  0
   -2.9685    3.4031    0.6819 H   0  0  0  0  0  0  0  0  0  0  0  0
   -4.4599    3.0086    2.6260 H   0  0  0  0  0  0  0  0  0  0  0  0
   -5.2212    0.7067    3.1526 H   0  0  0  0  0  0  0  0  0  0  0  0
   -4.5129   -1.1880    1.7552 H   0  0  0  0  0  0  0  0  0  0  0  0
    3.3083    1.2242   -1.6689 H   0  0  0  0  0  0  0  0  0  0  0  0
    6.6261    3.1051   -1.8360 H   0  0  0  0  0  0  0  0  0  0  0  0
    4.9399    3.5107   -1.3808 H   0  0  0  0  0  0  0  0  0  0  0  0
    6.2964    4.1791   -0.4361 H   0  0  0  0  0  0  0  0  0  0  0  0
  1  2  3  0
  2  3  1  0
  3  4  2  0
  4  5  1  0
  5  6  2  0
  6  7  1  0
  6  8  1  0
  8  9  1  0
  9 10  1  0
 10 11  1  0
 11 12  3  0
 12 13  1  0
 13 14  1  0
 14 15  1  0
 15 16  2  0
 16 17  1  0
 17 18  2  0
 18 19  1  0
 19 20  2  0
 20 21  1  0
 21 22  2  0
 22 23  1  0
 23 24  2  0
 18 25  1  0
 25 26  1  0
 26 27  2  0
 27 28  1  0
 28 29  2  0
 29 30  1  0
 30 31  2  0
 25 32  2  0
 32 33  1  0
 10 34  2  0
 34 35  1  0
 35 36  1  0
 36 37  1  0
  7  3  1  0
 35  8  2  0
 36  5  1  0
 33 13  2  0
 33 16  1  0
 24 19  1  0
 31 26  1  0
  1 38  1  0
  4 39  1  0
 15 40  1  0
 20 41  1  0
 21 42  1  0
 22 43  1  0
 23 44  1  0
 24 45  1  0
 27 46  1  0
 28 47  1  0
 29 48  1  0
 30 49  1  0
 31 50  1  0
 34 51  1  0
 37 52  1  0
 37 53  1  0
 37 54  1  0
M  END
