
     RDKit          3D

 88 96  0  0  0  0  0  0  0  0999 V2000
   -4.4529    9.4270    1.9449 C   0  0  0  0  0  0  0  0  0  0  0  0
   -4.6452    8.1023    1.8247 C   0  0  0  0  0  0  0  0  0  0  0  0
   -3.8595    7.2020    1.0478 C   0  0  0  0  0  0  0  0  0  0  0  0
   -3.3495    7.3258   -0.2308 C   0  0  0  0  0  0  0  0  0  0  0  0
   -2.6566    6.1592   -0.6681 C   0  0  0  0  0  0  0  0  0  0  0  0
   -2.6666    5.1468    0.2720 C   0  0  0  0  0  0  0  0  0  0  0  0
   -2.0835    3.8000    0.1695 C   0  0  0  0  0  0  0  0  0  0  0  0
   -2.7491    2.6709    0.6627 C   0  0  0  0  0  0  0  0  0  0  0  0
   -2.2072    1.3898    0.5033 C   0  0  0  0  0  0  0  0  0  0  0  0
   -0.9831    1.1934   -0.1561 C   0  0  0  0  0  0  0  0  0  0  0  0
   -0.4496   -0.1321   -0.3558 N   0  0  0  0  0  0  0  0  0  0  0  0
   -1.3380   -1.2296   -0.6527 C   0  0  0  0  0  0  0  0  0  0  0  0
   -2.3984   -1.0805   -1.5604 C   0  0  0  0  0  0  0  0  0  0  0  0
   -3.2623   -2.1460   -1.8414 C   0  0  0  0  0  0  0  0  0  0  0  0
   -3.0961   -3.3897   -1.2177 C   0  0  0  0  0  0  0  0  0  0  0  0
   -3.9919   -4.5217   -1.4922 C   0  0  0  0  0  0  0  0  0  0  0  0
   -3.6706   -5.8554   -1.6518 C   0  0  0  0  0  0  0  0  0  0  0  0
   -4.8156   -6.6744   -1.8692 C   0  0  0  0  0  0  0  0  0  0  0  0
   -5.9986   -5.9595   -1.8574 C   0  0  0  0  0  0  0  0  0  0  0  0
   -7.3382   -6.3985   -2.0479 C   0  0  0  0  0  0  0  0  0  0  0  0
   -7.9210   -7.4414   -1.4350 C   0  0  0  0  0  0  0  0  0  0  0  0
   -7.3513   -8.2365   -0.3987 C   0  0  0  0  0  0  0  0  0  0  0  0
   -6.5987   -7.8772    0.7075 C   0  0  0  0  0  0  0  0  0  0  0  0
   -6.2357   -8.9874    1.5241 C   0  0  0  0  0  0  0  0  0  0  0  0
   -6.7362  -10.1694    1.0325 C   0  0  0  0  0  0  0  0  0  0  0  0
   -7.6405   -9.9366   -0.3985 S   0  0  0  0  0  0  0  0  0  0  0  0
   -5.6860   -4.2858   -1.6241 S   0  0  0  0  0  0  0  0  0  0  0  0
   -2.0329   -3.5429   -0.3174 C   0  0  0  0  0  0  0  0  0  0  0  0
   -1.1662   -2.4802   -0.0395 C   0  0  0  0  0  0  0  0  0  0  0  0
    0.9687   -0.3750   -0.2643 C   0  0  0  0  0  0  0  0  0  0  0  0
    1.7452    0.2129    0.7450 C   0  0  0  0  0  0  0  0  0  0  0  0
    3.1169   -0.0547    0.8462 C   0  0  0  0  0  0  0  0  0  0  0  0
    3.7553   -0.9087   -0.0638 C   0  0  0  0  0  0  0  0  0  0  0  0
    5.1885   -1.2292    0.0395 C   0  0  0  0  0  0  0  0  0  0  0  0
    5.8141   -2.4415   -0.1796 C   0  0  0  0  0  0  0  0  0  0  0  0
    7.2273   -2.3756    0.0004 C   0  0  0  0  0  0  0  0  0  0  0  0
    7.6747   -1.1123    0.3496 C   0  0  0  0  0  0  0  0  0  0  0  0
    8.9869   -0.6143    0.6200 C   0  0  0  0  0  0  0  0  0  0  0  0
   10.0928   -1.3462    0.4022 C   0  0  0  0  0  0  0  0  0  0  0  0
   11.4266   -0.8932    0.6559 C   0  0  0  0  0  0  0  0  0  0  0  0
   12.5979   -1.5612    0.3263 C   0  0  0  0  0  0  0  0  0  0  0  0
   13.7791   -0.8644    0.7133 C   0  0  0  0  0  0  0  0  0  0  0  0
   13.4887    0.3232    1.3402 C   0  0  0  0  0  0  0  0  0  0  0  0
   11.8074    0.5880    1.4537 S   0  0  0  0  0  0  0  0  0  0  0  0
    6.3370   -0.0246    0.4517 S   0  0  0  0  0  0  0  0  0  0  0  0
    2.9821   -1.4886   -1.0783 C   0  0  0  0  0  0  0  0  0  0  0  0
    1.6110   -1.2268   -1.1771 C   0  0  0  0  0  0  0  0  0  0  0  0
   -0.3103    2.3290   -0.6334 C   0  0  0  0  0  0  0  0  0  0  0  0
   -0.8534    3.6112   -0.4760 C   0  0  0  0  0  0  0  0  0  0  0  0
   -3.4873    5.6497    1.6919 S   0  0  0  0  0  0  0  0  0  0  0  0
   -3.3557   10.1629    1.4153 C   0  0  0  0  0  0  0  0  0  0  0  0
   -1.9966    9.9026    1.4693 C   0  0  0  0  0  0  0  0  0  0  0  0
   -1.2095   10.9091    0.8370 C   0  0  0  0  0  0  0  0  0  0  0  0
   -1.9868   11.9199    0.3225 C   0  0  0  0  0  0  0  0  0  0  0  0
   -3.6508   11.6613    0.6184 S   0  0  0  0  0  0  0  0  0  0  0  0
   -5.1863    9.9912    2.5213 H   0  0  0  0  0  0  0  0  0  0  0  0
   -5.5006    7.6744    2.3464 H   0  0  0  0  0  0  0  0  0  0  0  0
   -3.4820    8.2122   -0.8405 H   0  0  0  0  0  0  0  0  0  0  0  0
   -2.2018    6.0616   -1.6454 H   0  0  0  0  0  0  0  0  0  0  0  0
   -3.7122    2.7639    1.1599 H   0  0  0  0  0  0  0  0  0  0  0  0
   -2.7547    0.5408    0.9071 H   0  0  0  0  0  0  0  0  0  0  0  0
   -2.5519   -0.1327   -2.0721 H   0  0  0  0  0  0  0  0  0  0  0  0
   -4.0598   -1.9881   -2.5642 H   0  0  0  0  0  0  0  0  0  0  0  0
   -2.6563   -6.2324   -1.6217 H   0  0  0  0  0  0  0  0  0  0  0  0
   -4.7721   -7.7452   -2.0268 H   0  0  0  0  0  0  0  0  0  0  0  0
   -7.9302   -5.8461   -2.7751 H   0  0  0  0  0  0  0  0  0  0  0  0
   -8.9334   -7.6965   -1.7417 H   0  0  0  0  0  0  0  0  0  0  0  0
   -6.3217   -6.8535    0.9282 H   0  0  0  0  0  0  0  0  0  0  0  0
   -5.6455   -8.9157    2.4294 H   0  0  0  0  0  0  0  0  0  0  0  0
   -6.6216  -11.1610    1.4487 H   0  0  0  0  0  0  0  0  0  0  0  0
   -1.8761   -4.4883    0.1956 H   0  0  0  0  0  0  0  0  0  0  0  0
   -0.3675   -2.6298    0.6836 H   0  0  0  0  0  0  0  0  0  0  0  0
    1.2818    0.8632    1.4837 H   0  0  0  0  0  0  0  0  0  0  0  0
    3.6722    0.4011    1.6630 H   0  0  0  0  0  0  0  0  0  0  0  0
    5.2835   -3.3463   -0.4481 H   0  0  0  0  0  0  0  0  0  0  0  0
    7.8762   -3.2343   -0.1178 H   0  0  0  0  0  0  0  0  0  0  0  0
    9.0582    0.3994    1.0062 H   0  0  0  0  0  0  0  0  0  0  0  0
   10.0090   -2.3495   -0.0063 H   0  0  0  0  0  0  0  0  0  0  0  0
   12.6087   -2.5189   -0.1801 H   0  0  0  0  0  0  0  0  0  0  0  0
   14.7873   -1.2200    0.5436 H   0  0  0  0  0  0  0  0  0  0  0  0
   14.1832    1.0492    1.7409 H   0  0  0  0  0  0  0  0  0  0  0  0
    3.4379   -2.1465   -1.8145 H   0  0  0  0  0  0  0  0  0  0  0  0
    1.0472   -1.6853   -1.9864 H   0  0  0  0  0  0  0  0  0  0  0  0
    0.6321    2.2245   -1.1654 H   0  0  0  0  0  0  0  0  0  0  0  0
   -0.3001    4.4616   -0.8688 H   0  0  0  0  0  0  0  0  0  0  0  0
   -1.5838    9.0241    1.9517 H   0  0  0  0  0  0  0  0  0  0  0  0
   -0.1290   10.8922    0.7708 H   0  0  0  0  0  0  0  0  0  0  0  0
   -1.6596   12.8051   -0.2055 H   0  0  0  0  0  0  0  0  0  0  0  0
  1  2  2  3
  2  3  1  0
  3  4  2  0
  4  5  1  0
  5  6  2  0
  6  7  1  0
  7  8  2  0
  8  9  1  0
  9 10  2  0
 10 11  1  0
 11 12  1  0
 12 13  2  0
 13 14  1  0
 14 15  2  0
 15 16  1  0
 16 17  2  0
 17 18  1  0
 18 19  2  0
 19 20  1  0
 20 21  2  3
 21 22  1  0
 22 23  2  0
 23 24  1  0
 24 25  2  0
 25 26  1  0
 19 27  1  0
 15 28  1  0
 28 29  2  0
 11 30  1  0
 30 31  2  0
 31 32  1  0
 32 33  2  0
 33 34  1  0
 34 35  2  0
 35 36  1  0
 36 37  2  0
 37 38  1  0
 38 39  2  3
 39 40  1  0
 40 41  2  0
 41 42  1  0
 42 43  2  0
 43 44  1  0
 37 45  1  0
 33 46  1  0
 46 47  2  0
 10 48  1  0
 48 49  2  0
  6 50  1  0
  1 51  1  0
 51 52  2  0
 52 53  1  0
 53 54  2  0
 54 55  1  0
 50  3  1  0
 55 51  1  0
 49  7  1  0
 29 12  1  0
 47 30  1  0
 27 16  1  0
 45 34  1  0
 26 22  1  0
 44 40  1  0
  1 56  1  0
  2 57  1  0
  4 58  1  0
  5 59  1  0
  8 60  1  0
  9 61  1  0
 13 62  1  0
 14 63  1  0
 17 64  1  0
 18 65  1  0
 20 66  1  0
 21 67  1  0
 23 68  1  0
 24 69  1  0
 25 70  1  0
 28 71  1  0
 29 72  1  0
 31 73  1  0
 32 74  1  0
 35 75  1  0
 36 76  1  0
 38 77  1  0
 39 78  1  0
 41 79  1  0
 42 80  1  0
 43 81  1  0
 46 82  1  0
 47 83  1  0
 48 84  1  0
 49 85  1  0
 52 86  1  0
 53 87  1  0
 54 88  1  0
M  END
