
     RDKit          3D

 38 41  0  0  0  0  0  0  0  0999 V2000
    1.5997   -1.7118    1.5412 C   0  0  0  0  0  0  0  0  0  0  0  0
    1.0772   -0.6350    2.0521 N   0  0  0  0  0  0  0  0  0  0  0  0
    1.0335    0.4768    1.2831 C   0  0  0  0  0  0  0  0  0  0  0  0
    2.0253    1.0901    0.6693 N   0  0  0  0  0  0  0  0  0  0  0  0
    1.4753    2.1858    0.0585 C   0  0  0  0  0  0  0  0  0  0  0  0
    2.0927    3.1628   -0.7368 C   0  0  0  0  0  0  0  0  0  0  0  0
    1.3149    4.2082   -1.2477 C   0  0  0  0  0  0  0  0  0  0  0  0
   -0.0509    4.2809   -0.9702 C   0  0  0  0  0  0  0  0  0  0  0  0
   -0.6840    3.3157   -0.1782 C   0  0  0  0  0  0  0  0  0  0  0  0
    0.1121    2.2756    0.3192 C   0  0  0  0  0  0  0  0  0  0  0  0
   -0.1445    1.1749    1.1051 N   0  0  0  0  0  0  0  0  0  0  0  0
   -1.4215    0.8211    1.7001 C   0  0  0  0  0  0  0  0  0  0  0  0
   -2.1083   -0.2993    0.9569 C   0  0  0  0  0  0  0  0  0  0  0  0
   -2.6286   -0.1001   -0.3307 C   0  0  0  0  0  0  0  0  0  0  0  0
   -3.2547   -1.1451   -1.0122 C   0  0  0  0  0  0  0  0  0  0  0  0
   -3.3704   -2.3986   -0.4152 C   0  0  0  0  0  0  0  0  0  0  0  0
   -2.8597   -2.6096    0.8635 C   0  0  0  0  0  0  0  0  0  0  0  0
   -2.2328   -1.5664    1.5465 C   0  0  0  0  0  0  0  0  0  0  0  0
    2.0363   -2.0068    0.1931 C   0  0  0  0  0  0  0  0  0  0  0  0
    3.2102   -2.6333   -0.1789 C   0  0  0  0  0  0  0  0  0  0  0  0
    3.3011   -2.8228   -1.5889 C   0  0  0  0  0  0  0  0  0  0  0  0
    2.1786   -2.3658   -2.2417 C   0  0  0  0  0  0  0  0  0  0  0  0
    1.0215   -1.7282   -1.1567 S   0  0  0  0  0  0  0  0  0  0  0  0
    1.7371   -2.5470    2.2507 H   0  0  0  0  0  0  0  0  0  0  0  0
    3.1549    3.0991   -0.9441 H   0  0  0  0  0  0  0  0  0  0  0  0
    1.7834    4.9705   -1.8653 H   0  0  0  0  0  0  0  0  0  0  0  0
   -0.6351    5.1039   -1.3770 H   0  0  0  0  0  0  0  0  0  0  0  0
   -1.7460    3.3809    0.0311 H   0  0  0  0  0  0  0  0  0  0  0  0
   -2.0651    1.7075    1.7143 H   0  0  0  0  0  0  0  0  0  0  0  0
   -1.2378    0.5574    2.7485 H   0  0  0  0  0  0  0  0  0  0  0  0
   -2.5398    0.8671   -0.8201 H   0  0  0  0  0  0  0  0  0  0  0  0
   -3.6463   -0.9821   -2.0129 H   0  0  0  0  0  0  0  0  0  0  0  0
   -3.8541   -3.2122   -0.9491 H   0  0  0  0  0  0  0  0  0  0  0  0
   -2.9457   -3.5886    1.3275 H   0  0  0  0  0  0  0  0  0  0  0  0
   -1.8311   -1.7520    2.5407 H   0  0  0  0  0  0  0  0  0  0  0  0
    3.9813   -2.9221    0.5252 H   0  0  0  0  0  0  0  0  0  0  0  0
    4.1457   -3.2710   -2.0975 H   0  0  0  0  0  0  0  0  0  0  0  0
    1.9755   -2.3807   -3.3035 H   0  0  0  0  0  0  0  0  0  0  0  0
  1  2  2  3
  2  3  1  0
  3  4  2  0
  4  5  1  0
  5  6  2  0
  6  7  1  0
  7  8  2  0
  8  9  1  0
  9 10  2  0
 10 11  1  0
 11 12  1  0
 12 13  1  0
 13 14  2  0
 14 15  1  0
 15 16  2  0
 16 17  1  0
 17 18  2  0
  1 19  1  0
 19 20  2  0
 20 21  1  0
 21 22  2  0
 22 23  1  0
 11  3  1  0
 18 13  1  0
 23 19  1  0
 10  5  1  0
  1 24  1  0
  6 25  1  0
  7 26  1  0
  8 27  1  0
  9 28  1  0
 12 29  1  0
 12 30  1  0
 14 31  1  0
 15 32  1  0
 16 33  1  0
 17 34  1  0
 18 35  1  0
 20 36  1  0
 21 37  1  0
 22 38  1  0
M  END
