
     RDKit          3D

 57 65  0  0  0  0  0  0  0  0999 V2000
   -0.0342   -0.1990    4.2390 C   0  0  0  0  0  0  0  0  0  0  0  0
    0.0034    0.9464    2.7934 Si  0  0  0  0  0  4  0  0  0  0  0  0
    0.0484    2.7343    3.2424 C   0  0  0  0  0  0  0  0  0  0  0  0
   -1.3392    0.5425    1.4836 C   0  0  0  0  0  0  0  0  0  0  0  0
   -2.7362    0.5722    1.4295 C   0  0  0  0  0  0  0  0  0  0  0  0
   -3.1638    0.1348    0.1802 C   0  0  0  0  0  0  0  0  0  0  0  0
   -4.5221    0.0254   -0.3233 C   0  0  0  0  0  0  0  0  0  0  0  0
   -5.3848    1.1133   -0.4516 C   0  0  0  0  0  0  0  0  0  0  0  0
   -6.6773    1.1004   -0.9060 N   0  0  0  0  0  0  0  0  0  0  0  0
   -7.2737   -0.0656   -1.3211 C   0  0  0  0  0  0  0  0  0  0  0  0
   -8.6490    0.0463   -1.7980 C   0  0  0  0  0  0  0  0  0  0  0  0
   -9.5984    0.9817   -1.4184 C   0  0  0  0  0  0  0  0  0  0  0  0
  -10.8380    0.8326   -2.1052 C   0  0  0  0  0  0  0  0  0  0  0  0
  -10.7990   -0.2058   -3.0058 C   0  0  0  0  0  0  0  0  0  0  0  0
   -9.2781   -0.9798   -3.0227 S   0  0  0  0  0  0  0  0  0  0  0  0
   -6.5264   -1.2712   -1.2164 C   0  0  0  0  0  0  0  0  0  0  0  0
   -6.9129   -2.5292   -1.5011 N   0  0  0  0  0  0  0  0  0  0  0  0
   -5.6303   -3.5230   -1.1847 S   0  0  0  0  0  0  0  0  0  0  0  0
   -4.5235   -2.4262   -0.6332 N   0  0  0  0  0  0  0  0  0  0  0  0
   -5.1011   -1.2123   -0.6971 C   0  0  0  0  0  0  0  0  0  0  0  0
   -1.8375   -0.2529   -0.8704 S   0  0  0  0  0  0  0  0  0  0  0  0
   -0.7179    0.1210    0.3267 C   0  0  0  0  0  0  0  0  0  0  0  0
    0.7133    0.0808    0.3372 C   0  0  0  0  0  0  0  0  0  0  0  0
    1.8281   -0.3565   -0.8433 S   0  0  0  0  0  0  0  0  0  0  0  0
    3.1583   -0.0478    0.2291 C   0  0  0  0  0  0  0  0  0  0  0  0
    4.5167   -0.2368   -0.2502 C   0  0  0  0  0  0  0  0  0  0  0  0
    5.4499    0.7957   -0.3407 C   0  0  0  0  0  0  0  0  0  0  0  0
    6.7483    0.7078   -0.7681 N   0  0  0  0  0  0  0  0  0  0  0  0
    7.2777   -0.4875   -1.1918 C   0  0  0  0  0  0  0  0  0  0  0  0
    8.6656   -0.4542   -1.6430 C   0  0  0  0  0  0  0  0  0  0  0  0
    9.6679    0.4076   -1.2239 C   0  0  0  0  0  0  0  0  0  0  0  0
   10.9052    0.1982   -1.8989 C   0  0  0  0  0  0  0  0  0  0  0  0
   10.8127   -0.8100   -2.8296 C   0  0  0  0  0  0  0  0  0  0  0  0
    9.2458   -1.4872   -2.8855 S   0  0  0  0  0  0  0  0  0  0  0  0
    6.4544   -1.6447   -1.1225 C   0  0  0  0  0  0  0  0  0  0  0  0
    6.7678   -2.9201   -1.4200 N   0  0  0  0  0  0  0  0  0  0  0  0
    5.4198   -3.8362   -1.1431 S   0  0  0  0  0  0  0  0  0  0  0  0
    4.3710   -2.6800   -0.6000 N   0  0  0  0  0  0  0  0  0  0  0  0
    5.0248   -1.5036   -0.6321 C   0  0  0  0  0  0  0  0  0  0  0  0
    2.7367    0.4156    1.4709 C   0  0  0  0  0  0  0  0  0  0  0  0
    1.3399    0.4678    1.5031 C   0  0  0  0  0  0  0  0  0  0  0  0
   -0.8964    0.0032    4.8809 H   0  0  0  0  0  0  0  0  0  0  0  0
    0.8655   -0.0900    4.8518 H   0  0  0  0  0  0  0  0  0  0  0  0
   -0.0925   -1.2431    3.9195 H   0  0  0  0  0  0  0  0  0  0  0  0
    0.0416    3.3696    2.3506 H   0  0  0  0  0  0  0  0  0  0  0  0
    0.9487    2.9779    3.8155 H   0  0  0  0  0  0  0  0  0  0  0  0
   -0.8171    3.0098    3.8520 H   0  0  0  0  0  0  0  0  0  0  0  0
   -3.4050    0.8725    2.2284 H   0  0  0  0  0  0  0  0  0  0  0  0
   -5.0368    2.1106   -0.1812 H   0  0  0  0  0  0  0  0  0  0  0  0
   -9.4032    1.7458   -0.6747 H   0  0  0  0  0  0  0  0  0  0  0  0
  -11.7080    1.4597   -1.9518 H   0  0  0  0  0  0  0  0  0  0  0  0
  -11.5876   -0.5438   -3.6637 H   0  0  0  0  0  0  0  0  0  0  0  0
    5.1600    1.8085   -0.0596 H   0  0  0  0  0  0  0  0  0  0  0  0
    9.5109    1.1626   -0.4620 H   0  0  0  0  0  0  0  0  0  0  0  0
   11.8110    0.7644   -1.7169 H   0  0  0  0  0  0  0  0  0  0  0  0
   11.5877   -1.1788   -3.4871 H   0  0  0  0  0  0  0  0  0  0  0  0
    3.4089    0.6762    2.2800 H   0  0  0  0  0  0  0  0  0  0  0  0
  1  2  1  0
  2  3  1  0
  2  4  1  0
  4  5  1  0
  5  6  2  0
  6  7  1  0
  7  8  2  0
  8  9  1  0
  9 10  2  0
 10 11  1  0
 11 12  2  0
 12 13  1  0
 13 14  2  0
 14 15  1  0
 10 16  1  0
 16 17  2  0
 17 18  1  0
 18 19  1  0
 19 20  2  0
  6 21  1  0
 21 22  1  0
 22 23  1  0
 23 24  1  0
 24 25  1  0
 25 26  1  0
 26 27  2  0
 27 28  1  0
 28 29  2  0
 29 30  1  0
 30 31  2  0
 31 32  1  0
 32 33  2  0
 33 34  1  0
 29 35  1  0
 35 36  2  0
 36 37  1  0
 37 38  1  0
 38 39  2  0
 25 40  2  0
 40 41  1  0
 41  2  1  0
 22  4  2  0
 41 23  2  0
 20  7  1  0
 39 26  1  0
 15 11  1  0
 20 16  1  0
 34 30  1  0
 39 35  1  0
  1 42  1  0
  1 43  1  0
  1 44  1  0
  3 45  1  0
  3 46  1  0
  3 47  1  0
  5 48  1  0
  8 49  1  0
 12 50  1  0
 13 51  1  0
 14 52  1  0
 27 53  1  0
 31 54  1  0
 32 55  1  0
 33 56  1  0
 40 57  1  0
M  END
