
     RDKit          3D

 24 24  0  0  0  0  0  0  0  0999 V2000
   -2.6639   -2.2672   -0.1311 C   0  0  0  0  0  0  0  0  0  0  0  0
   -1.6251   -1.8848   -0.8841 C   0  0  0  0  0  0  0  0  0  0  0  0
   -0.6378   -0.8839   -0.4493 C   0  0  0  0  0  0  0  0  0  0  0  0
    0.7092   -1.2812   -0.4362 C   0  0  0  0  0  0  0  0  0  0  0  0
    1.7213   -0.4009   -0.0484 C   0  0  0  0  0  0  0  0  0  0  0  0
    2.9826   -0.9282   -0.0787 O   0  0  0  0  0  0  0  0  0  0  0  0
    4.0481   -0.0733    0.3155 C   0  0  0  0  0  0  0  0  0  0  0  0
    1.3835    0.8968    0.3250 C   0  0  0  0  0  0  0  0  0  0  0  0
    0.0456    1.3123    0.3056 C   0  0  0  0  0  0  0  0  0  0  0  0
   -0.9730    0.4349   -0.0841 C   0  0  0  0  0  0  0  0  0  0  0  0
   -2.2999    0.7762   -0.1522 O   0  0  0  0  0  0  0  0  0  0  0  0
   -2.6617    2.1038    0.2002 C   0  0  0  0  0  0  0  0  0  0  0  0
   -2.8463   -1.8391    0.8497 H   0  0  0  0  0  0  0  0  0  0  0  0
   -3.3604   -3.0174   -0.4895 H   0  0  0  0  0  0  0  0  0  0  0  0
   -1.4558   -2.3368   -1.8574 H   0  0  0  0  0  0  0  0  0  0  0  0
    0.9788   -2.2958   -0.7229 H   0  0  0  0  0  0  0  0  0  0  0  0
    4.9794   -0.6427    0.2389 H   0  0  0  0  0  0  0  0  0  0  0  0
    4.1297    0.7898   -0.3534 H   0  0  0  0  0  0  0  0  0  0  0  0
    3.9359    0.2428    1.3579 H   0  0  0  0  0  0  0  0  0  0  0  0
    2.1346    1.6163    0.6337 H   0  0  0  0  0  0  0  0  0  0  0  0
   -0.1651    2.3356    0.5984 H   0  0  0  0  0  0  0  0  0  0  0  0
   -3.7463    2.1955    0.0876 H   0  0  0  0  0  0  0  0  0  0  0  0
   -2.1957    2.8321   -0.4716 H   0  0  0  0  0  0  0  0  0  0  0  0
   -2.4178    2.3153    1.2464 H   0  0  0  0  0  0  0  0  0  0  0  0
  1  2  2  0
  2  3  1  0
  3  4  2  0
  4  5  1  0
  5  6  1  0
  6  7  1  0
  5  8  2  0
  8  9  1  0
  9 10  2  0
 10 11  1  0
 11 12  1  0
 10  3  1  0
  1 13  1  0
  1 14  1  0
  2 15  1  0
  4 16  1  0
  7 17  1  0
  7 18  1  0
  7 19  1  0
  8 20  1  0
  9 21  1  0
 12 22  1  0
 12 23  1  0
 12 24  1  0
M  END
