
     RDKit          3D

 64 69  0  0  0  0  0  0  0  0999 V2000
   -8.6676    1.8634    1.8492 C   0  0  0  0  0  0  0  0  0  0  0  0
   -7.8150    2.8878    1.7171 C   0  0  0  0  0  0  0  0  0  0  0  0
   -6.3511    2.7553    1.6854 C   0  0  0  0  0  0  0  0  0  0  0  0
   -5.5768    3.7646    2.2568 C   0  0  0  0  0  0  0  0  0  0  0  0
   -4.1796    3.6892    2.2540 C   0  0  0  0  0  0  0  0  0  0  0  0
   -3.5340    2.5937    1.6430 C   0  0  0  0  0  0  0  0  0  0  0  0
   -2.1650    2.2224    1.5088 C   0  0  0  0  0  0  0  0  0  0  0  0
   -0.9591    2.8168    1.9378 C   0  0  0  0  0  0  0  0  0  0  0  0
    0.2667    2.2236    1.6176 C   0  0  0  0  0  0  0  0  0  0  0  0
    0.3176    1.0581    0.8540 C   0  0  0  0  0  0  0  0  0  0  0  0
    1.5927    0.4134    0.5076 C   0  0  0  0  0  0  0  0  0  0  0  0
    2.6719    1.0896    0.0831 C   0  0  0  0  0  0  0  0  0  0  0  0
    3.9005    0.4351   -0.2306 C   0  0  0  0  0  0  0  0  0  0  0  0
    5.3589    1.2151    0.2489 S   0  0  0  0  0  0  0  0  0  0  0  0
    6.3581   -0.0324   -0.3595 C   0  0  0  0  0  0  0  0  0  0  0  0
    7.8051   -0.0101   -0.2674 C   0  0  0  0  0  0  0  0  0  0  0  0
    8.6928   -0.7732   -1.0095 C   0  0  0  0  0  0  0  0  0  0  0  0
   10.0701   -0.5390   -0.6842 C   0  0  0  0  0  0  0  0  0  0  0  0
   11.2214   -1.2227   -1.3389 C   0  0  0  0  0  0  0  0  0  0  0  0
   10.1781    0.4130    0.3082 C   0  0  0  0  0  0  0  0  0  0  0  0
    8.6624    0.9940    0.8321 S   0  0  0  0  0  0  0  0  0  0  0  0
    5.5850   -1.0121   -0.9521 C   0  0  0  0  0  0  0  0  0  0  0  0
    4.1720   -0.7515   -0.9024 C   0  0  0  0  0  0  0  0  0  0  0  0
    3.1634   -1.6657   -1.5219 C   0  0  0  0  0  0  0  0  0  0  0  0
   -0.8754    0.4472    0.4370 C   0  0  0  0  0  0  0  0  0  0  0  0
   -2.1150    1.0258    0.7918 C   0  0  0  0  0  0  0  0  0  0  0  0
   -3.4302    0.6584    0.4959 N   0  0  0  0  0  0  0  0  0  0  0  0
   -3.8177   -0.5095   -0.2265 C   0  0  0  0  0  0  0  0  0  0  0  0
   -4.7998   -0.4296   -1.2183 C   0  0  0  0  0  0  0  0  0  0  0  0
   -5.1712   -1.5781   -1.9225 C   0  0  0  0  0  0  0  0  0  0  0  0
   -4.5760   -2.8114   -1.6462 C   0  0  0  0  0  0  0  0  0  0  0  0
   -5.0352   -3.8500   -2.4079 O   0  0  0  0  0  0  0  0  0  0  0  0
   -4.4600   -5.1279   -2.1681 C   0  0  0  0  0  0  0  0  0  0  0  0
   -3.5983   -2.8895   -0.6542 C   0  0  0  0  0  0  0  0  0  0  0  0
   -3.2173   -1.7427    0.0533 C   0  0  0  0  0  0  0  0  0  0  0  0
   -4.3062    1.6119    1.0205 C   0  0  0  0  0  0  0  0  0  0  0  0
   -5.7184    1.6700    1.0581 C   0  0  0  0  0  0  0  0  0  0  0  0
   -8.3346    0.8358    1.9523 H   0  0  0  0  0  0  0  0  0  0  0  0
   -9.7383    2.0409    1.8747 H   0  0  0  0  0  0  0  0  0  0  0  0
   -8.2069    3.9002    1.6476 H   0  0  0  0  0  0  0  0  0  0  0  0
   -6.0514    4.6175    2.7374 H   0  0  0  0  0  0  0  0  0  0  0  0
   -3.5963    4.4720    2.7309 H   0  0  0  0  0  0  0  0  0  0  0  0
   -0.9779    3.7375    2.5145 H   0  0  0  0  0  0  0  0  0  0  0  0
    1.1807    2.6930    1.9746 H   0  0  0  0  0  0  0  0  0  0  0  0
    1.6102   -0.6666    0.6200 H   0  0  0  0  0  0  0  0  0  0  0  0
    2.6429    2.1736   -0.0021 H   0  0  0  0  0  0  0  0  0  0  0  0
    8.3760   -1.4765   -1.7704 H   0  0  0  0  0  0  0  0  0  0  0  0
   10.9572   -2.2472   -1.6206 H   0  0  0  0  0  0  0  0  0  0  0  0
   11.5168   -0.6807   -2.2430 H   0  0  0  0  0  0  0  0  0  0  0  0
   12.0849   -1.2715   -0.6674 H   0  0  0  0  0  0  0  0  0  0  0  0
   11.0825    0.8003    0.7577 H   0  0  0  0  0  0  0  0  0  0  0  0
    6.0056   -1.8958   -1.4169 H   0  0  0  0  0  0  0  0  0  0  0  0
    2.7366   -2.3302   -0.7644 H   0  0  0  0  0  0  0  0  0  0  0  0
    2.3543   -1.1013   -1.9958 H   0  0  0  0  0  0  0  0  0  0  0  0
    3.6240   -2.2886   -2.2961 H   0  0  0  0  0  0  0  0  0  0  0  0
   -0.8357   -0.4467   -0.1786 H   0  0  0  0  0  0  0  0  0  0  0  0
   -5.2582    0.5184   -1.4892 H   0  0  0  0  0  0  0  0  0  0  0  0
   -5.9279   -1.5095   -2.7008 H   0  0  0  0  0  0  0  0  0  0  0  0
   -4.6630   -5.4668   -1.1467 H   0  0  0  0  0  0  0  0  0  0  0  0
   -4.9292   -5.8397   -2.8540 H   0  0  0  0  0  0  0  0  0  0  0  0
   -3.3851   -5.1230   -2.3774 H   0  0  0  0  0  0  0  0  0  0  0  0
   -3.1178   -3.8280   -0.3984 H   0  0  0  0  0  0  0  0  0  0  0  0
   -2.4823   -1.8431    0.8487 H   0  0  0  0  0  0  0  0  0  0  0  0
   -6.3149    0.8796    0.6136 H   0  0  0  0  0  0  0  0  0  0  0  0
  1  2  2  0
  2  3  1  0
  3  4  2  0
  4  5  1  0
  5  6  2  0
  6  7  1  0
  7  8  2  0
  8  9  1  0
  9 10  2  0
 10 11  1  0
 11 12  2  3
 12 13  1  0
 13 14  1  0
 14 15  1  0
 15 16  1  0
 16 17  2  0
 17 18  1  0
 18 19  1  0
 18 20  2  0
 20 21  1  0
 15 22  2  0
 22 23  1  0
 23 24  1  0
 10 25  1  0
 25 26  2  0
 26 27  1  0
 27 28  1  0
 28 29  2  0
 29 30  1  0
 30 31  2  0
 31 32  1  0
 32 33  1  0
 31 34  1  0
 34 35  2  0
 27 36  1  0
 36 37  2  0
 37  3  1  0
 36  6  1  0
 26  7  1  0
 35 28  1  0
 23 13  2  0
 21 16  1  0
  1 38  1  0
  1 39  1  0
  2 40  1  0
  4 41  1  0
  5 42  1  0
  8 43  1  0
  9 44  1  0
 11 45  1  0
 12 46  1  0
 17 47  1  0
 19 48  1  0
 19 49  1  0
 19 50  1  0
 20 51  1  0
 22 52  1  0
 24 53  1  0
 24 54  1  0
 24 55  1  0
 25 56  1  0
 29 57  1  0
 30 58  1  0
 33 59  1  0
 33 60  1  0
 33 61  1  0
 34 62  1  0
 35 63  1  0
 37 64  1  0
M  END
