
     RDKit          3D

 78 85  0  0  0  0  0  0  0  0999 V2000
   -9.2961    2.9550   -2.9854 C   0  0  0  0  0  0  0  0  0  0  0  0
   -8.0971    3.4688   -2.6875 C   0  0  0  0  0  0  0  0  0  0  0  0
   -6.9013    2.6531   -2.4437 C   0  0  0  0  0  0  0  0  0  0  0  0
   -5.6961    3.0309   -3.0335 C   0  0  0  0  0  0  0  0  0  0  0  0
   -4.5213    2.3111   -2.7883 C   0  0  0  0  0  0  0  0  0  0  0  0
   -4.5472    1.1894   -1.9324 C   0  0  0  0  0  0  0  0  0  0  0  0
   -3.5394    0.2939   -1.4705 C   0  0  0  0  0  0  0  0  0  0  0  0
   -2.1561    0.1870   -1.7273 C   0  0  0  0  0  0  0  0  0  0  0  0
   -1.4143   -0.8422   -1.1379 C   0  0  0  0  0  0  0  0  0  0  0  0
   -2.0174   -1.7604   -0.2796 C   0  0  0  0  0  0  0  0  0  0  0  0
   -1.2667   -2.8720    0.3262 C   0  0  0  0  0  0  0  0  0  0  0  0
   -0.0718   -2.8549    0.9410 C   0  0  0  0  0  0  0  0  0  0  0  0
    0.7220   -1.6919    1.1551 C   0  0  0  0  0  0  0  0  0  0  0  0
    2.3302   -1.6994    0.5431 S   0  0  0  0  0  0  0  0  0  0  0  0
    2.6444   -0.1028    1.0671 C   0  0  0  0  0  0  0  0  0  0  0  0
    3.8924    0.5784    0.8079 C   0  0  0  0  0  0  0  0  0  0  0  0
    4.0659    1.9368    0.6299 C   0  0  0  0  0  0  0  0  0  0  0  0
    5.4295    2.2947    0.4075 C   0  0  0  0  0  0  0  0  0  0  0  0
    6.2821    1.2050    0.4279 C   0  0  0  0  0  0  0  0  0  0  0  0
    7.7229    1.2312    0.2641 C   0  0  0  0  0  0  0  0  0  0  0  0
    8.5464    2.3355    0.3834 C   0  0  0  0  0  0  0  0  0  0  0  0
    9.9240    2.0266    0.1752 C   0  0  0  0  0  0  0  0  0  0  0  0
   10.1423    0.6901   -0.1089 C   0  0  0  0  0  0  0  0  0  0  0  0
   11.4244    0.0533   -0.3566 C   0  0  0  0  0  0  0  0  0  0  0  0
   12.6682    0.6658   -0.3527 C   0  0  0  0  0  0  0  0  0  0  0  0
   13.7585   -0.2275   -0.6218 C   0  0  0  0  0  0  0  0  0  0  0  0
   15.1930    0.1752   -0.6668 C   0  0  0  0  0  0  0  0  0  0  0  0
   13.2940   -1.5103   -0.8219 C   0  0  0  0  0  0  0  0  0  0  0  0
   11.5971   -1.6233   -0.6973 S   0  0  0  0  0  0  0  0  0  0  0  0
    8.6485   -0.1574   -0.1281 S   0  0  0  0  0  0  0  0  0  0  0  0
    5.3958   -0.2388    0.7099 S   0  0  0  0  0  0  0  0  0  0  0  0
    1.5523    0.4091    1.7384 C   0  0  0  0  0  0  0  0  0  0  0  0
    0.4459   -0.5046    1.8226 C   0  0  0  0  0  0  0  0  0  0  0  0
   -0.8243   -0.1747    2.5395 C   0  0  0  0  0  0  0  0  0  0  0  0
   -3.3972   -1.6752   -0.0315 C   0  0  0  0  0  0  0  0  0  0  0  0
   -4.1441   -0.6242   -0.6096 C   0  0  0  0  0  0  0  0  0  0  0  0
   -5.5046   -0.3116   -0.5527 N   0  0  0  0  0  0  0  0  0  0  0  0
   -6.4838   -1.0189    0.2051 C   0  0  0  0  0  0  0  0  0  0  0  0
   -7.7153   -1.3498   -0.3732 C   0  0  0  0  0  0  0  0  0  0  0  0
   -8.6774   -2.0431    0.3692 C   0  0  0  0  0  0  0  0  0  0  0  0
   -8.4203   -2.4004    1.6930 C   0  0  0  0  0  0  0  0  0  0  0  0
   -9.2752   -3.0644    2.5279 O   0  0  0  0  0  0  0  0  0  0  0  0
  -10.5311   -3.4534    1.9868 C   0  0  0  0  0  0  0  0  0  0  0  0
   -7.1912   -2.0636    2.2670 C   0  0  0  0  0  0  0  0  0  0  0  0
   -6.2213   -1.3800    1.5300 C   0  0  0  0  0  0  0  0  0  0  0  0
   -5.7590    0.7996   -1.3593 C   0  0  0  0  0  0  0  0  0  0  0  0
   -6.9394    1.5436   -1.5845 C   0  0  0  0  0  0  0  0  0  0  0  0
  -10.1459    3.6062   -3.1637 H   0  0  0  0  0  0  0  0  0  0  0  0
   -9.4616    1.8876   -3.0758 H   0  0  0  0  0  0  0  0  0  0  0  0
   -7.9644    4.5453   -2.6319 H   0  0  0  0  0  0  0  0  0  0  0  0
   -5.6532    3.8953   -3.6923 H   0  0  0  0  0  0  0  0  0  0  0  0
   -3.5892    2.6278   -3.2485 H   0  0  0  0  0  0  0  0  0  0  0  0
   -1.6654    0.8896   -2.3957 H   0  0  0  0  0  0  0  0  0  0  0  0
   -0.3545   -0.9178   -1.3729 H   0  0  0  0  0  0  0  0  0  0  0  0
   -1.7680   -3.8358    0.2404 H   0  0  0  0  0  0  0  0  0  0  0  0
    0.3446   -3.8015    1.2807 H   0  0  0  0  0  0  0  0  0  0  0  0
    3.2516    2.6508    0.6461 H   0  0  0  0  0  0  0  0  0  0  0  0
    5.7581    3.3134    0.2374 H   0  0  0  0  0  0  0  0  0  0  0  0
    8.1890    3.3280    0.6286 H   0  0  0  0  0  0  0  0  0  0  0  0
   10.7134    2.7641    0.2439 H   0  0  0  0  0  0  0  0  0  0  0  0
   12.8077    1.7229   -0.1606 H   0  0  0  0  0  0  0  0  0  0  0  0
   15.6429    0.0715    0.3257 H   0  0  0  0  0  0  0  0  0  0  0  0
   15.7544   -0.4500   -1.3687 H   0  0  0  0  0  0  0  0  0  0  0  0
   15.2985    1.2161   -0.9886 H   0  0  0  0  0  0  0  0  0  0  0  0
   13.8732   -2.3974   -1.0399 H   0  0  0  0  0  0  0  0  0  0  0  0
    1.5396    1.4002    2.1775 H   0  0  0  0  0  0  0  0  0  0  0  0
   -1.3248   -1.0736    2.9094 H   0  0  0  0  0  0  0  0  0  0  0  0
   -0.6216    0.4672    3.4034 H   0  0  0  0  0  0  0  0  0  0  0  0
   -1.5082    0.3619    1.8771 H   0  0  0  0  0  0  0  0  0  0  0  0
   -3.8805   -2.4199    0.5952 H   0  0  0  0  0  0  0  0  0  0  0  0
   -7.9315   -1.1105   -1.4116 H   0  0  0  0  0  0  0  0  0  0  0  0
   -9.6150   -2.2873   -0.1175 H   0  0  0  0  0  0  0  0  0  0  0  0
  -11.0811   -3.9825    2.7711 H   0  0  0  0  0  0  0  0  0  0  0  0
  -10.4049   -4.1443    1.1472 H   0  0  0  0  0  0  0  0  0  0  0  0
  -11.1230   -2.5785    1.6961 H   0  0  0  0  0  0  0  0  0  0  0  0
   -6.9935   -2.3264    3.3046 H   0  0  0  0  0  0  0  0  0  0  0  0
   -5.2933   -1.0972    2.0226 H   0  0  0  0  0  0  0  0  0  0  0  0
   -7.8642    1.2853   -1.0763 H   0  0  0  0  0  0  0  0  0  0  0  0
  1  2  2  0
  2  3  1  0
  3  4  2  0
  4  5  1  0
  5  6  2  0
  6  7  1  0
  7  8  2  0
  8  9  1  0
  9 10  2  0
 10 11  1  0
 11 12  2  3
 12 13  1  0
 13 14  1  0
 14 15  1  0
 15 16  1  0
 16 17  2  0
 17 18  1  0
 18 19  2  0
 19 20  1  0
 20 21  2  0
 21 22  1  0
 22 23  2  0
 23 24  1  0
 24 25  2  0
 25 26  1  0
 26 27  1  0
 26 28  2  0
 28 29  1  0
 23 30  1  0
 19 31  1  0
 15 32  2  0
 32 33  1  0
 33 34  1  0
 10 35  1  0
 35 36  2  0
 36 37  1  0
 37 38  1  0
 38 39  2  0
 39 40  1  0
 40 41  2  0
 41 42  1  0
 42 43  1  0
 41 44  1  0
 44 45  2  0
 37 46  1  0
 46 47  2  0
 47  3  1  0
 46  6  1  0
 36  7  1  0
 45 38  1  0
 33 13  2  0
 31 16  1  0
 30 20  1  0
 29 24  1  0
  1 48  1  0
  1 49  1  0
  2 50  1  0
  4 51  1  0
  5 52  1  0
  8 53  1  0
  9 54  1  0
 11 55  1  0
 12 56  1  0
 17 57  1  0
 18 58  1  0
 21 59  1  0
 22 60  1  0
 25 61  1  0
 27 62  1  0
 27 63  1  0
 27 64  1  0
 28 65  1  0
 32 66  1  0
 34 67  1  0
 34 68  1  0
 34 69  1  0
 35 70  1  0
 39 71  1  0
 40 72  1  0
 43 73  1  0
 43 74  1  0
 43 75  1  0
 44 76  1  0
 45 77  1  0
 47 78  1  0
M  END
