
     RDKit          3D

 48 54  0  0  0  0  0  0  0  0999 V2000
    1.6186   -0.3225   -2.0815 Si  0  0  0  0  0  4  0  0  0  0  0  0
    2.2166    0.6750   -0.4675 C   0  0  0  0  0  0  0  0  0  0  0  0
    1.1931    0.9157    0.3877 C   0  0  0  0  0  0  0  0  0  0  0  0
   -0.0020    0.3759   -0.1328 C   0  0  0  0  0  0  0  0  0  0  0  0
   -1.2436    0.3707    0.4198 N   0  0  0  0  0  0  0  0  0  0  0  0
   -2.1360   -0.2693   -0.4423 C   0  0  0  0  0  0  0  0  0  0  0  0
   -1.3666   -0.7191   -1.5369 C   0  0  0  0  0  0  0  0  0  0  0  0
   -1.8572   -1.4427   -2.5619 N   0  0  0  0  0  0  0  0  0  0  0  0
   -3.1627   -1.7442   -2.4508 C   0  0  0  0  0  0  0  0  0  0  0  0
   -4.0213   -1.3525   -1.4225 C   0  0  0  0  0  0  0  0  0  0  0  0
   -5.3540   -1.7693   -1.4434 C   0  0  0  0  0  0  0  0  0  0  0  0
   -6.2316   -1.3943   -0.4319 C   0  0  0  0  0  0  0  0  0  0  0  0
   -5.8172   -0.5622    0.6112 C   0  0  0  0  0  0  0  0  0  0  0  0
   -6.7564   -0.1935    1.5896 C   0  0  0  0  0  0  0  0  0  0  0  0
   -6.4146    0.6633    2.6295 C   0  0  0  0  0  0  0  0  0  0  0  0
   -5.1297    1.1735    2.6911 C   0  0  0  0  0  0  0  0  0  0  0  0
   -4.1853    0.8078    1.7248 C   0  0  0  0  0  0  0  0  0  0  0  0
   -4.4770   -0.0916    0.6662 C   0  0  0  0  0  0  0  0  0  0  0  0
   -3.5463   -0.5384   -0.3587 C   0  0  0  0  0  0  0  0  0  0  0  0
   -0.0733   -0.2852   -1.3281 C   0  0  0  0  0  0  0  0  0  0  0  0
    3.6227    1.0529   -0.3372 C   0  0  0  0  0  0  0  0  0  0  0  0
    4.0047    2.2958   -0.8652 C   0  0  0  0  0  0  0  0  0  0  0  0
    5.3239    2.7270   -0.7751 C   0  0  0  0  0  0  0  0  0  0  0  0
    6.2741    1.9238   -0.1494 C   0  0  0  0  0  0  0  0  0  0  0  0
    5.9204    0.6821    0.4005 C   0  0  0  0  0  0  0  0  0  0  0  0
    6.8910   -0.1118    1.0344 C   0  0  0  0  0  0  0  0  0  0  0  0
    6.5584   -1.3459    1.5912 C   0  0  0  0  0  0  0  0  0  0  0  0
    5.2490   -1.8026    1.5233 C   0  0  0  0  0  0  0  0  0  0  0  0
    4.2726   -1.0256    0.8962 C   0  0  0  0  0  0  0  0  0  0  0  0
    4.5793    0.2292    0.3176 C   0  0  0  0  0  0  0  0  0  0  0  0
    1.8095    0.5365   -3.2808 H   0  0  0  0  0  0  0  0  0  0  0  0
    2.2797   -1.6542   -2.1062 H   0  0  0  0  0  0  0  0  0  0  0  0
    1.2800    1.4410    1.3298 H   0  0  0  0  0  0  0  0  0  0  0  0
   -1.4592    0.7269    1.3359 H   0  0  0  0  0  0  0  0  0  0  0  0
   -3.5314   -2.3554   -3.2728 H   0  0  0  0  0  0  0  0  0  0  0  0
   -5.7265   -2.4019   -2.2469 H   0  0  0  0  0  0  0  0  0  0  0  0
   -7.2594   -1.7500   -0.4801 H   0  0  0  0  0  0  0  0  0  0  0  0
   -7.7771   -0.5690    1.5433 H   0  0  0  0  0  0  0  0  0  0  0  0
   -7.1542    0.9426    3.3747 H   0  0  0  0  0  0  0  0  0  0  0  0
   -4.8568    1.8667    3.4827 H   0  0  0  0  0  0  0  0  0  0  0  0
   -3.2207    1.2861    1.8073 H   0  0  0  0  0  0  0  0  0  0  0  0
    3.2713    2.9354   -1.3525 H   0  0  0  0  0  0  0  0  0  0  0  0
    5.6120    3.6888   -1.1909 H   0  0  0  0  0  0  0  0  0  0  0  0
    7.3008    2.2791   -0.0898 H   0  0  0  0  0  0  0  0  0  0  0  0
    7.9222    0.2289    1.1001 H   0  0  0  0  0  0  0  0  0  0  0  0
    7.3217   -1.9471    2.0777 H   0  0  0  0  0  0  0  0  0  0  0  0
    4.9818   -2.7628    1.9566 H   0  0  0  0  0  0  0  0  0  0  0  0
    3.2567   -1.4135    0.8647 H   0  0  0  0  0  0  0  0  0  0  0  0
  1  2  1  0
  2  3  2  0
  3  4  1  0
  4  5  1  0
  5  6  1  0
  6  7  2  0
  7  8  1  0
  8  9  2  0
  9 10  1  0
 10 11  2  0
 11 12  1  0
 12 13  2  0
 13 14  1  0
 14 15  2  0
 15 16  1  0
 16 17  2  0
 17 18  1  0
 18 19  2  0
  7 20  1  0
  2 21  1  0
 21 22  2  0
 22 23  1  0
 23 24  2  0
 24 25  1  0
 25 26  2  0
 26 27  1  0
 27 28  2  0
 28 29  1  0
 29 30  2  0
 20  1  1  0
 30 21  1  0
 20  4  2  0
 30 25  1  0
 19  6  1  0
 19 10  1  0
 18 13  1  0
  1 31  1  0
  1 32  1  0
  3 33  1  0
  5 34  1  0
  9 35  1  0
 11 36  1  0
 12 37  1  0
 14 38  1  0
 15 39  1  0
 16 40  1  0
 17 41  1  0
 22 42  1  0
 23 43  1  0
 24 44  1  0
 26 45  1  0
 27 46  1  0
 28 47  1  0
 29 48  1  0
M  END
