
     RDKit          3D

 30 31  0  0  0  0  0  0  0  0999 V2000
   -4.2586    3.0593   -1.4558 C   0  0  0  0  0  0  0  0  0  0  0  0
   -3.2477    3.3384   -0.6217 C   0  0  0  0  0  0  0  0  0  0  0  0
   -2.6157    2.3542    0.3163 C   0  0  0  0  0  0  0  0  0  0  0  0
   -1.2740    2.1006   -0.1726 N   0  0  0  0  0  0  0  0  0  0  0  0
   -0.4563    1.1467    0.3609 C   0  0  0  0  0  0  0  0  0  0  0  0
    0.7820    0.5236   -0.6610 S   0  0  0  0  0  0  0  0  0  0  0  0
    1.3369   -0.5831    0.5181 C   0  0  0  0  0  0  0  0  0  0  0  0
    2.4676   -1.4659    0.2556 C   0  0  0  0  0  0  0  0  0  0  0  0
    3.3712   -1.6078    1.0803 O   0  0  0  0  0  0  0  0  0  0  0  0
    2.4893   -2.1844   -1.0164 C   0  0  0  0  0  0  0  0  0  0  0  0
    3.6153   -2.5264   -1.7460 C   0  0  0  0  0  0  0  0  0  0  0  0
    3.3052   -3.2706   -2.9205 C   0  0  0  0  0  0  0  0  0  0  0  0
    1.9546   -3.5076   -3.0353 C   0  0  0  0  0  0  0  0  0  0  0  0
    1.0749   -2.8502   -1.7257 S   0  0  0  0  0  0  0  0  0  0  0  0
    0.6635   -0.4117    1.7110 C   0  0  0  0  0  0  0  0  0  0  0  0
    0.9629   -1.1135    2.8341 N   0  0  0  0  0  0  0  0  0  0  0  0
   -0.3833    0.5638    1.6173 C   0  0  0  0  0  0  0  0  0  0  0  0
   -1.2414    0.9030    2.7123 C   0  0  0  0  0  0  0  0  0  0  0  0
   -1.9343    1.1628    3.6077 N   0  0  0  0  0  0  0  0  0  0  0  0
   -4.6734    3.8277   -2.1014 H   0  0  0  0  0  0  0  0  0  0  0  0
   -4.6940    2.0663   -1.5149 H   0  0  0  0  0  0  0  0  0  0  0  0
   -2.8502    4.3508   -0.5930 H   0  0  0  0  0  0  0  0  0  0  0  0
   -2.5944    2.8025    1.3143 H   0  0  0  0  0  0  0  0  0  0  0  0
   -3.1952    1.4246    0.3579 H   0  0  0  0  0  0  0  0  0  0  0  0
   -1.1914    2.2240   -1.1811 H   0  0  0  0  0  0  0  0  0  0  0  0
    4.6191   -2.2448   -1.4468 H   0  0  0  0  0  0  0  0  0  0  0  0
    4.0368   -3.6233   -3.6377 H   0  0  0  0  0  0  0  0  0  0  0  0
    1.4414   -4.0503   -3.8178 H   0  0  0  0  0  0  0  0  0  0  0  0
    1.8727   -1.5769    2.9111 H   0  0  0  0  0  0  0  0  0  0  0  0
    0.6165   -0.8316    3.7502 H   0  0  0  0  0  0  0  0  0  0  0  0
  1  2  2  0
  2  3  1  0
  3  4  1  0
  4  5  1  0
  5  6  1  0
  6  7  1  0
  7  8  1  0
  8  9  2  0
  8 10  1  0
 10 11  2  0
 11 12  1  0
 12 13  2  0
 13 14  1  0
  7 15  2  0
 15 16  1  0
 15 17  1  0
 17 18  1  0
 18 19  3  0
 17  5  2  0
 14 10  1  0
  1 20  1  0
  1 21  1  0
  2 22  1  0
  3 23  1  0
  3 24  1  0
  4 25  1  0
 11 26  1  0
 12 27  1  0
 13 28  1  0
 16 29  1  0
 16 30  1  0
M  END
