
     RDKit          3D

 30 31  0  0  0  0  0  0  0  0999 V2000
   -3.1499    0.3033    0.0369 C   0  0  0  0  0  0  0  0  0  0  0  0
   -1.7087    0.6131    0.1178 C   0  0  0  0  0  0  0  0  0  0  0  0
   -0.6951   -0.1976   -0.2280 C   0  0  0  0  0  0  0  0  0  0  0  0
    0.6951    0.1976   -0.1121 C   0  0  0  0  0  0  0  0  0  0  0  0
    1.7087   -0.6131   -0.4579 C   0  0  0  0  0  0  0  0  0  0  0  0
    3.1499   -0.3033   -0.3769 C   0  0  0  0  0  0  0  0  0  0  0  0
    3.6598    0.9172    0.0871 C   0  0  0  0  0  0  0  0  0  0  0  0
    5.0391    1.1466    0.1384 C   0  0  0  0  0  0  0  0  0  0  0  0
    5.9295    0.1591   -0.2735 C   0  0  0  0  0  0  0  0  0  0  0  0
    5.4421   -1.0588   -0.7372 C   0  0  0  0  0  0  0  0  0  0  0  0
    4.0637   -1.2870   -0.7881 C   0  0  0  0  0  0  0  0  0  0  0  0
   -4.0637    1.2869    0.4482 C   0  0  0  0  0  0  0  0  0  0  0  0
   -5.4421    1.0588    0.3974 C   0  0  0  0  0  0  0  0  0  0  0  0
   -5.9295   -0.1591   -0.0665 C   0  0  0  0  0  0  0  0  0  0  0  0
   -5.0391   -1.1465   -0.4787 C   0  0  0  0  0  0  0  0  0  0  0  0
   -3.6598   -0.9171   -0.4275 C   0  0  0  0  0  0  0  0  0  0  0  0
   -1.4762    1.6056    0.5000 H   0  0  0  0  0  0  0  0  0  0  0  0
   -0.8817   -1.1953   -0.6134 H   0  0  0  0  0  0  0  0  0  0  0  0
    0.8817    1.1952    0.2734 H   0  0  0  0  0  0  0  0  0  0  0  0
    1.4762   -1.6057   -0.8402 H   0  0  0  0  0  0  0  0  0  0  0  0
    3.0009    1.7140    0.4179 H   0  0  0  0  0  0  0  0  0  0  0  0
    5.4154    2.0996    0.5014 H   0  0  0  0  0  0  0  0  0  0  0  0
    7.0005    0.3388   -0.2331 H   0  0  0  0  0  0  0  0  0  0  0  0
    6.1322   -1.8338   -1.0603 H   0  0  0  0  0  0  0  0  0  0  0  0
    3.7120   -2.2489   -1.1552 H   0  0  0  0  0  0  0  0  0  0  0  0
   -3.7120    2.2487    0.8155 H   0  0  0  0  0  0  0  0  0  0  0  0
   -6.1322    1.8337    0.7206 H   0  0  0  0  0  0  0  0  0  0  0  0
   -7.0005   -0.3388   -0.1069 H   0  0  0  0  0  0  0  0  0  0  0  0
   -5.4154   -2.0994   -0.8419 H   0  0  0  0  0  0  0  0  0  0  0  0
   -3.0010   -1.7139   -0.7584 H   0  0  0  0  0  0  0  0  0  0  0  0
  1  2  1  0
  2  3  2  0
  3  4  1  0
  4  5  2  0
  5  6  1  0
  6  7  2  0
  7  8  1  0
  8  9  2  0
  9 10  1  0
 10 11  2  0
  1 12  2  0
 12 13  1  0
 13 14  2  0
 14 15  1  0
 15 16  2  0
 16  1  1  0
 11  6  1  0
  2 17  1  0
  3 18  1  0
  4 19  1  0
  5 20  1  0
  7 21  1  0
  8 22  1  0
  9 23  1  0
 10 24  1  0
 11 25  1  0
 12 26  1  0
 13 27  1  0
 14 28  1  0
 15 29  1  0
 16 30  1  0
M  END
