
     RDKit          3D

 24 26  0  0  0  0  0  0  0  0999 V2000
   -0.6848    0.3885   -0.1689 C   0  0  0  0  0  0  0  0  0  0  0  0
    0.7497    0.2837   -0.0763 C   0  0  0  0  0  0  0  0  0  0  0  0
    1.6498    1.3227   -0.4252 C   0  0  0  0  0  0  0  0  0  0  0  0
    3.0364    1.1766   -0.3191 C   0  0  0  0  0  0  0  0  0  0  0  0
    3.5726   -0.0162    0.1405 C   0  0  0  0  0  0  0  0  0  0  0  0
    2.7218   -1.0602    0.4931 C   0  0  0  0  0  0  0  0  0  0  0  0
    1.3264   -0.9255    0.3909 C   0  0  0  0  0  0  0  0  0  0  0  0
    0.5049   -1.9956    0.7542 C   0  0  0  0  0  0  0  0  0  0  0  0
   -0.8806   -1.8944    0.6648 C   0  0  0  0  0  0  0  0  0  0  0  0
   -1.4854   -0.7202    0.2094 C   0  0  0  0  0  0  0  0  0  0  0  0
   -2.8870   -0.6505    0.1310 C   0  0  0  0  0  0  0  0  0  0  0  0
   -3.5257    0.5022   -0.3178 C   0  0  0  0  0  0  0  0  0  0  0  0
   -2.7682    1.6005   -0.6939 C   0  0  0  0  0  0  0  0  0  0  0  0
   -1.3730    1.5434   -0.6203 C   0  0  0  0  0  0  0  0  0  0  0  0
    1.2824    2.2772   -0.7907 H   0  0  0  0  0  0  0  0  0  0  0  0
    3.6912    1.9983   -0.5972 H   0  0  0  0  0  0  0  0  0  0  0  0
    4.6490   -0.1366    0.2254 H   0  0  0  0  0  0  0  0  0  0  0  0
    3.1600   -1.9893    0.8519 H   0  0  0  0  0  0  0  0  0  0  0  0
    0.9367   -2.9272    1.1137 H   0  0  0  0  0  0  0  0  0  0  0  0
   -1.4850   -2.7504    0.9574 H   0  0  0  0  0  0  0  0  0  0  0  0
   -3.4973   -1.5032    0.4221 H   0  0  0  0  0  0  0  0  0  0  0  0
   -4.6101    0.5396   -0.3724 H   0  0  0  0  0  0  0  0  0  0  0  0
   -3.2562    2.5056   -1.0457 H   0  0  0  0  0  0  0  0  0  0  0  0
   -0.8276    2.4312   -0.9269 H   0  0  0  0  0  0  0  0  0  0  0  0
  1  2  1  0
  2  3  2  0
  3  4  1  0
  4  5  2  0
  5  6  1  0
  2  7  1  0
  7  8  1  0
  8  9  2  0
  1 10  2  0
 10 11  1  0
 11 12  2  0
 12 13  1  0
 13 14  2  0
 14  1  1  0
  7  6  2  0
 10  9  1  0
  3 15  1  0
  4 16  1  0
  5 17  1  0
  6 18  1  0
  8 19  1  0
  9 20  1  0
 11 21  1  0
 12 22  1  0
 13 23  1  0
 14 24  1  0
M  END
