
     RDKit          3D

 45 50  0  0  0  0  0  0  0  0999 V2000
   -2.0474   -0.1771   -0.9311 Si  0  0  0  0  0  4  0  0  0  0  0  0
   -0.8786   -0.1580    0.5506 C   0  0  0  0  0  0  0  0  0  0  0  0
   -1.5553   -0.0126    1.7077 C   0  0  0  0  0  0  0  0  0  0  0  0
   -2.9990    0.1139    1.5710 C   0  0  0  0  0  0  0  0  0  0  0  0
   -3.4756    0.0480    0.3089 C   0  0  0  0  0  0  0  0  0  0  0  0
   -4.8632    0.2181   -0.1059 C   0  0  0  0  0  0  0  0  0  0  0  0
   -5.6511    1.3078    0.3317 C   0  0  0  0  0  0  0  0  0  0  0  0
   -6.9958    1.5125   -0.0594 C   0  0  0  0  0  0  0  0  0  0  0  0
   -7.6812    0.6455   -0.9234 C   0  0  0  0  0  0  0  0  0  0  0  0
   -6.9536   -0.4740   -1.3908 C   0  0  0  0  0  0  0  0  0  0  0  0
   -7.4269   -1.4155   -2.2200 N   0  0  0  0  0  0  0  0  0  0  0  0
   -6.1973   -2.5082   -2.4404 S   0  0  0  0  0  0  0  0  0  0  0  0
   -5.0061   -1.8300   -1.5109 N   0  0  0  0  0  0  0  0  0  0  0  0
   -5.5149   -0.7046   -0.9768 C   0  0  0  0  0  0  0  0  0  0  0  0
    0.5503   -0.2995    0.3886 C   0  0  0  0  0  0  0  0  0  0  0  0
    1.2207   -1.5091    0.1015 C   0  0  0  0  0  0  0  0  0  0  0  0
    2.6475   -1.6165   -0.0554 C   0  0  0  0  0  0  0  0  0  0  0  0
    3.5673   -0.5319    0.0576 C   0  0  0  0  0  0  0  0  0  0  0  0
    5.0146   -0.6554   -0.0935 C   0  0  0  0  0  0  0  0  0  0  0  0
    5.7296   -1.6843    0.5216 C   0  0  0  0  0  0  0  0  0  0  0  0
    7.1070   -1.7695    0.3291 C   0  0  0  0  0  0  0  0  0  0  0  0
    7.7394   -0.8311   -0.4748 C   0  0  0  0  0  0  0  0  0  0  0  0
    6.9638    0.1570   -1.0541 C   0  0  0  0  0  0  0  0  0  0  0  0
    5.6279    0.2629   -0.8829 N   0  0  0  0  0  0  0  0  0  0  0  0
    2.8742    0.6540    0.3468 C   0  0  0  0  0  0  0  0  0  0  0  0
    3.4011    1.9084    0.5457 C   0  0  0  0  0  0  0  0  0  0  0  0
    2.3546    2.7653    0.7988 N   0  0  0  0  0  0  0  0  0  0  0  0
    1.1611    2.0789    0.7794 C   0  0  0  0  0  0  0  0  0  0  0  0
    1.4522    0.7630    0.5072 C   0  0  0  0  0  0  0  0  0  0  0  0
   -2.0278   -1.4944   -1.6149 H   0  0  0  0  0  0  0  0  0  0  0  0
   -1.8937    1.0222   -1.7962 H   0  0  0  0  0  0  0  0  0  0  0  0
   -1.0846    0.0229    2.6829 H   0  0  0  0  0  0  0  0  0  0  0  0
   -3.6145    0.2624    2.4480 H   0  0  0  0  0  0  0  0  0  0  0  0
   -5.2022    2.0428    1.0009 H   0  0  0  0  0  0  0  0  0  0  0  0
   -7.5216    2.3867    0.3256 H   0  0  0  0  0  0  0  0  0  0  0  0
   -8.7099    0.8158   -1.2172 H   0  0  0  0  0  0  0  0  0  0  0  0
    0.6320   -2.4202   -0.0111 H   0  0  0  0  0  0  0  0  0  0  0  0
    3.0406   -2.6051   -0.2963 H   0  0  0  0  0  0  0  0  0  0  0  0
    5.2267   -2.4075    1.1558 H   0  0  0  0  0  0  0  0  0  0  0  0
    7.6780   -2.5612    0.8054 H   0  0  0  0  0  0  0  0  0  0  0  0
    8.8091   -0.8669   -0.6458 H   0  0  0  0  0  0  0  0  0  0  0  0
    7.4075    0.9158   -1.6925 H   0  0  0  0  0  0  0  0  0  0  0  0
    4.4183    2.2763    0.5161 H   0  0  0  0  0  0  0  0  0  0  0  0
    2.4499    3.7584    0.9660 H   0  0  0  0  0  0  0  0  0  0  0  0
    0.2270    2.5940    0.9585 H   0  0  0  0  0  0  0  0  0  0  0  0
  1  2  1  0
  2  3  2  0
  3  4  1  0
  4  5  2  0
  5  6  1  0
  6  7  2  0
  7  8  1  0
  8  9  2  0
  9 10  1  0
 10 11  2  0
 11 12  1  0
 12 13  1  0
 13 14  2  0
  2 15  1  0
 15 16  2  0
 16 17  1  0
 17 18  2  0
 18 19  1  0
 19 20  2  0
 20 21  1  0
 21 22  2  0
 22 23  1  0
 23 24  2  0
 18 25  1  0
 25 26  2  0
 26 27  1  0
 27 28  1  0
 28 29  2  0
  5  1  1  0
 14  6  1  0
 29 15  1  0
 14 10  1  0
 24 19  1  0
 29 25  1  0
  1 30  1  0
  1 31  1  0
  3 32  1  0
  4 33  1  0
  7 34  1  0
  8 35  1  0
  9 36  1  0
 16 37  1  0
 17 38  1  0
 20 39  1  0
 21 40  1  0
 22 41  1  0
 23 42  1  0
 26 43  1  0
 27 44  1  0
 28 45  1  0
M  END
