
     RDKit          3D

 22 23  0  0  0  0  0  0  0  0999 V2000
    0.7298   -0.0518   -0.1531 C   0  0  0  0  0  0  0  0  0  0  0  0
   -0.7298    0.0518   -0.3162 C   0  0  0  0  0  0  0  0  0  0  0  0
   -1.4554    1.0868    0.2971 C   0  0  0  0  0  0  0  0  0  0  0  0
   -2.8411    1.1855    0.1433 C   0  0  0  0  0  0  0  0  0  0  0  0
   -3.5252    0.2501   -0.6287 C   0  0  0  0  0  0  0  0  0  0  0  0
   -2.8255   -0.7835   -1.2460 C   0  0  0  0  0  0  0  0  0  0  0  0
   -1.4400   -0.8814   -1.0901 C   0  0  0  0  0  0  0  0  0  0  0  0
    1.5706    1.0336   -0.4512 C   0  0  0  0  0  0  0  0  0  0  0  0
    2.9563    0.9361   -0.2972 C   0  0  0  0  0  0  0  0  0  0  0  0
    3.5252   -0.2501    0.1593 C   0  0  0  0  0  0  0  0  0  0  0  0
    2.7102   -1.3380    0.4612 C   0  0  0  0  0  0  0  0  0  0  0  0
    1.3248   -1.2390    0.3055 C   0  0  0  0  0  0  0  0  0  0  0  0
   -0.9417    1.8214    0.9140 H   0  0  0  0  0  0  0  0  0  0  0  0
   -3.3840    1.9918    0.6293 H   0  0  0  0  0  0  0  0  0  0  0  0
   -4.6025    0.3265   -0.7491 H   0  0  0  0  0  0  0  0  0  0  0  0
   -3.3554   -1.5137   -1.8519 H   0  0  0  0  0  0  0  0  0  0  0  0
   -0.9109   -1.6900   -1.5903 H   0  0  0  0  0  0  0  0  0  0  0  0
    1.1474    1.9657   -0.8202 H   0  0  0  0  0  0  0  0  0  0  0  0
    3.5892    1.7864   -0.5369 H   0  0  0  0  0  0  0  0  0  0  0  0
    4.6025   -0.3265    0.2797 H   0  0  0  0  0  0  0  0  0  0  0  0
    3.1501   -2.2645    0.8208 H   0  0  0  0  0  0  0  0  0  0  0  0
    0.7051   -2.0971    0.5580 H   0  0  0  0  0  0  0  0  0  0  0  0
  1  2  1  0
  2  3  2  0
  3  4  1  0
  4  5  2  0
  5  6  1  0
  6  7  2  0
  1  8  2  0
  8  9  1  0
  9 10  2  0
 10 11  1  0
 11 12  2  0
 12  1  1  0
  7  2  1  0
  3 13  1  0
  4 14  1  0
  5 15  1  0
  6 16  1  0
  7 17  1  0
  8 18  1  0
  9 19  1  0
 10 20  1  0
 11 21  1  0
 12 22  1  0
M  END
