
     RDKit          3D

 28 30  0  0  0  0  0  0  0  0999 V2000
    1.0915   -0.7718   -0.5026 C   0  0  0  0  0  0  0  0  0  0  0  0
    2.4292   -0.2663   -0.2042 C   0  0  0  0  0  0  0  0  0  0  0  0
    3.5538   -0.9691   -0.6639 C   0  0  0  0  0  0  0  0  0  0  0  0
    4.8458   -0.5104   -0.3942 C   0  0  0  0  0  0  0  0  0  0  0  0
    5.0301    0.6590    0.3398 C   0  0  0  0  0  0  0  0  0  0  0  0
    3.9252    1.3695    0.8040 C   0  0  0  0  0  0  0  0  0  0  0  0
    2.6328    0.9098    0.5338 C   0  0  0  0  0  0  0  0  0  0  0  0
    0.7392   -1.8504   -1.1770 N   0  0  0  0  0  0  0  0  0  0  0  0
   -0.6326   -1.8267   -1.1414 C   0  0  0  0  0  0  0  0  0  0  0  0
   -1.0788   -0.7267   -0.4417 C   0  0  0  0  0  0  0  0  0  0  0  0
   -2.3777   -0.1775   -0.0762 C   0  0  0  0  0  0  0  0  0  0  0  0
   -3.5604   -0.8244   -0.4660 C   0  0  0  0  0  0  0  0  0  0  0  0
   -4.8111   -0.3038   -0.1193 C   0  0  0  0  0  0  0  0  0  0  0  0
   -4.8972    0.8714    0.6224 C   0  0  0  0  0  0  0  0  0  0  0  0
   -3.7344    1.5268    1.0180 C   0  0  0  0  0  0  0  0  0  0  0  0
   -2.4845    1.0058    0.6709 C   0  0  0  0  0  0  0  0  0  0  0  0
    0.0339   -0.0412   -0.0264 O   0  0  0  0  0  0  0  0  0  0  0  0
    3.4241   -1.8849   -1.2390 H   0  0  0  0  0  0  0  0  0  0  0  0
    5.7054   -1.0674   -0.7581 H   0  0  0  0  0  0  0  0  0  0  0  0
    6.0349    1.0165    0.5500 H   0  0  0  0  0  0  0  0  0  0  0  0
    4.0673    2.2823    1.3770 H   0  0  0  0  0  0  0  0  0  0  0  0
    1.7853    1.4810    0.9064 H   0  0  0  0  0  0  0  0  0  0  0  0
   -1.2192   -2.5984   -1.6189 H   0  0  0  0  0  0  0  0  0  0  0  0
   -3.5276   -1.7436   -1.0457 H   0  0  0  0  0  0  0  0  0  0  0  0
   -5.7177   -0.8176   -0.4294 H   0  0  0  0  0  0  0  0  0  0  0  0
   -5.8693    1.2762    0.8921 H   0  0  0  0  0  0  0  0  0  0  0  0
   -3.7968    2.4446    1.5971 H   0  0  0  0  0  0  0  0  0  0  0  0
   -1.5914    1.5375    0.9925 H   0  0  0  0  0  0  0  0  0  0  0  0
  1  2  1  0
  2  3  2  0
  3  4  1  0
  4  5  2  0
  5  6  1  0
  6  7  2  0
  1  8  2  0
  8  9  1  0
  9 10  2  0
 10 11  1  0
 11 12  2  0
 12 13  1  0
 13 14  2  0
 14 15  1  0
 15 16  2  0
 10 17  1  0
 17  1  1  0
  7  2  1  0
 16 11  1  0
  3 18  1  0
  4 19  1  0
  5 20  1  0
  6 21  1  0
  7 22  1  0
  9 23  1  0
 12 24  1  0
 13 25  1  0
 14 26  1  0
 15 27  1  0
 16 28  1  0
M  END
