
     RDKit          3D

 39 44  0  0  0  0  0  0  0  0999 V2000
   -1.4184   -0.0853    0.8057 Si  0  0  0  0  0  4  0  0  0  0  0  0
   -0.0476   -0.0921   -0.5115 C   0  0  0  0  0  0  0  0  0  0  0  0
   -0.5989   -0.1356   -1.7447 C   0  0  0  0  0  0  0  0  0  0  0  0
   -2.0545   -0.1470   -1.7981 C   0  0  0  0  0  0  0  0  0  0  0  0
   -2.6862   -0.1225   -0.6059 C   0  0  0  0  0  0  0  0  0  0  0  0
   -4.1279   -0.0563   -0.3960 C   0  0  0  0  0  0  0  0  0  0  0  0
   -4.9432    0.8771   -1.0790 C   0  0  0  0  0  0  0  0  0  0  0  0
   -6.3444    0.9727   -0.9048 C   0  0  0  0  0  0  0  0  0  0  0  0
   -7.0653    0.1412   -0.0338 C   0  0  0  0  0  0  0  0  0  0  0  0
   -6.3116   -0.8221    0.6776 C   0  0  0  0  0  0  0  0  0  0  0  0
   -6.8128   -1.7089    1.5511 N   0  0  0  0  0  0  0  0  0  0  0  0
   -5.5298   -2.6107    2.0919 S   0  0  0  0  0  0  0  0  0  0  0  0
   -4.2824   -1.9138    1.2529 N   0  0  0  0  0  0  0  0  0  0  0  0
   -4.8109   -0.9324    0.5000 C   0  0  0  0  0  0  0  0  0  0  0  0
    1.3404   -0.0335   -0.2373 C   0  0  0  0  0  0  0  0  0  0  0  0
    2.5559    0.4251   -1.3999 S   0  0  0  0  0  0  0  0  0  0  0  0
    3.8851    0.2449   -0.2921 C   0  0  0  0  0  0  0  0  0  0  0  0
    5.2382    0.4995   -0.6976 C   0  0  0  0  0  0  0  0  0  0  0  0
    6.4124    0.3997    0.0347 C   0  0  0  0  0  0  0  0  0  0  0  0
    7.4832    0.7590   -0.8206 C   0  0  0  0  0  0  0  0  0  0  0  0
    6.9125    1.0600   -2.0306 C   0  0  0  0  0  0  0  0  0  0  0  0
    5.5678    0.9082   -1.9690 O   0  0  0  0  0  0  0  0  0  0  0  0
    3.3641   -0.1482    0.8935 C   0  0  0  0  0  0  0  0  0  0  0  0
    3.7631   -0.4844    2.2022 C   0  0  0  0  0  0  0  0  0  0  0  0
    2.5806   -0.8024    2.8768 C   0  0  0  0  0  0  0  0  0  0  0  0
    1.4443   -0.6955    2.1029 O   0  0  0  0  0  0  0  0  0  0  0  0
    1.9942   -0.2958    0.9194 C   0  0  0  0  0  0  0  0  0  0  0  0
   -1.4780    1.2010    1.5510 H   0  0  0  0  0  0  0  0  0  0  0  0
   -1.4099   -1.3228    1.6261 H   0  0  0  0  0  0  0  0  0  0  0  0
   -0.0395   -0.1496   -2.6730 H   0  0  0  0  0  0  0  0  0  0  0  0
   -2.5598   -0.1591   -2.7568 H   0  0  0  0  0  0  0  0  0  0  0  0
   -4.4728    1.5737   -1.7753 H   0  0  0  0  0  0  0  0  0  0  0  0
   -6.8879    1.7282   -1.4732 H   0  0  0  0  0  0  0  0  0  0  0  0
   -8.1383    0.2244    0.0900 H   0  0  0  0  0  0  0  0  0  0  0  0
    6.4950    0.1014    1.0691 H   0  0  0  0  0  0  0  0  0  0  0  0
    8.5371    0.7934   -0.5834 H   0  0  0  0  0  0  0  0  0  0  0  0
    7.3028    1.3812   -2.9862 H   0  0  0  0  0  0  0  0  0  0  0  0
    4.7541   -0.5070    2.6301 H   0  0  0  0  0  0  0  0  0  0  0  0
    2.3894   -1.1184    3.8942 H   0  0  0  0  0  0  0  0  0  0  0  0
  1  2  1  0
  2  3  2  0
  3  4  1  0
  4  5  2  0
  5  6  1  0
  6  7  2  0
  7  8  1  0
  8  9  2  0
  9 10  1  0
 10 11  2  0
 11 12  1  0
 12 13  1  0
 13 14  2  0
  2 15  1  0
 15 16  1  0
 16 17  1  0
 17 18  1  0
 18 19  2  0
 19 20  1  0
 20 21  2  0
 21 22  1  0
 17 23  2  0
 23 24  1  0
 24 25  2  0
 25 26  1  0
 26 27  1  0
  5  1  1  0
 14  6  1  0
 27 15  2  0
 14 10  1  0
 22 18  1  0
 27 23  1  0
  1 28  1  0
  1 29  1  0
  3 30  1  0
  4 31  1  0
  7 32  1  0
  8 33  1  0
  9 34  1  0
 19 35  1  0
 20 36  1  0
 21 37  1  0
 24 38  1  0
 25 39  1  0
M  END
