
     RDKit          3D

 27 29  0  0  0  0  0  0  0  0999 V2000
   -2.2628   -0.1159    0.0104 C   0  0  0  0  0  0  0  0  0  0  0  0
   -0.9117   -0.6651    0.1446 C   0  0  0  0  0  0  0  0  0  0  0  0
    0.1923    0.0865   -0.0028 N   0  0  0  0  0  0  0  0  0  0  0  0
    1.2087   -0.8048    0.2004 N   0  0  0  0  0  0  0  0  0  0  0  0
    2.5896   -0.4174    0.1344 C   0  0  0  0  0  0  0  0  0  0  0  0
    3.5538   -1.3589    0.3477 N   0  0  0  0  0  0  0  0  0  0  0  0
    4.8411   -0.9593    0.2779 C   0  0  0  0  0  0  0  0  0  0  0  0
    5.2297    0.3407    0.0044 C   0  0  0  0  0  0  0  0  0  0  0  0
    4.2401    1.2922   -0.2115 C   0  0  0  0  0  0  0  0  0  0  0  0
    2.9001    0.9145   -0.1470 C   0  0  0  0  0  0  0  0  0  0  0  0
    0.8220   -2.0826    0.4692 N   0  0  0  0  0  0  0  0  0  0  0  0
   -0.5058   -1.9860    0.4323 C   0  0  0  0  0  0  0  0  0  0  0  0
   -3.3978   -0.9257    0.1699 C   0  0  0  0  0  0  0  0  0  0  0  0
   -4.6828   -0.3885    0.0391 C   0  0  0  0  0  0  0  0  0  0  0  0
   -4.8504    0.9630   -0.2523 C   0  0  0  0  0  0  0  0  0  0  0  0
   -3.7351    1.7803   -0.4136 C   0  0  0  0  0  0  0  0  0  0  0  0
   -2.4509    1.2444   -0.2831 C   0  0  0  0  0  0  0  0  0  0  0  0
    5.5768   -1.7391    0.4539 H   0  0  0  0  0  0  0  0  0  0  0  0
    6.2803    0.6056   -0.0395 H   0  0  0  0  0  0  0  0  0  0  0  0
    4.5076    2.3227   -0.4288 H   0  0  0  0  0  0  0  0  0  0  0  0
    2.1245    1.6561   -0.3152 H   0  0  0  0  0  0  0  0  0  0  0  0
   -1.1026   -2.8683    0.6139 H   0  0  0  0  0  0  0  0  0  0  0  0
   -3.3094   -1.9844    0.3976 H   0  0  0  0  0  0  0  0  0  0  0  0
   -5.5535   -1.0274    0.1653 H   0  0  0  0  0  0  0  0  0  0  0  0
   -5.8495    1.3792   -0.3536 H   0  0  0  0  0  0  0  0  0  0  0  0
   -3.8606    2.8358   -0.6411 H   0  0  0  0  0  0  0  0  0  0  0  0
   -1.5936    1.9022   -0.4134 H   0  0  0  0  0  0  0  0  0  0  0  0
  1  2  1  0
  2  3  2  0
  3  4  1  0
  4  5  1  0
  5  6  2  0
  6  7  1  0
  7  8  2  0
  8  9  1  0
  9 10  2  0
  4 11  1  0
 11 12  2  0
  1 13  2  0
 13 14  1  0
 14 15  2  0
 15 16  1  0
 16 17  2  0
 17  1  1  0
 12  2  1  0
 10  5  1  0
  7 18  1  0
  8 19  1  0
  9 20  1  0
 10 21  1  0
 12 22  1  0
 13 23  1  0
 14 24  1  0
 15 25  1  0
 16 26  1  0
 17 27  1  0
M  END
