
     RDKit          3D

 18 20  0  0  0  0  0  0  0  0999 V2000
   -1.2321   -0.4712    0.3247 C   0  0  0  0  0  0  0  0  0  0  0  0
   -2.5315   -0.7869    0.5767 O   0  0  0  0  0  0  0  0  0  0  0  0
   -3.2839    0.2465    0.1146 C   0  0  0  0  0  0  0  0  0  0  0  0
   -2.4843    1.2247   -0.4323 C   0  0  0  0  0  0  0  0  0  0  0  0
   -1.1470    0.7685   -0.3011 C   0  0  0  0  0  0  0  0  0  0  0  0
    0.1242    1.2526   -0.6351 C   0  0  0  0  0  0  0  0  0  0  0  0
    1.2321    0.4712   -0.3247 C   0  0  0  0  0  0  0  0  0  0  0  0
    2.5315    0.7869   -0.5767 O   0  0  0  0  0  0  0  0  0  0  0  0
    3.2839   -0.2465   -0.1146 C   0  0  0  0  0  0  0  0  0  0  0  0
    2.4843   -1.2247    0.4323 C   0  0  0  0  0  0  0  0  0  0  0  0
    1.1470   -0.7685    0.3011 C   0  0  0  0  0  0  0  0  0  0  0  0
   -0.1242   -1.2526    0.6351 C   0  0  0  0  0  0  0  0  0  0  0  0
   -4.3517    0.1391    0.2456 H   0  0  0  0  0  0  0  0  0  0  0  0
   -2.8237    2.1519   -0.8712 H   0  0  0  0  0  0  0  0  0  0  0  0
    0.2516    2.2125   -1.1242 H   0  0  0  0  0  0  0  0  0  0  0  0
    4.3517   -0.1391   -0.2456 H   0  0  0  0  0  0  0  0  0  0  0  0
    2.8237   -2.1519    0.8712 H   0  0  0  0  0  0  0  0  0  0  0  0
   -0.2516   -2.2125    1.1242 H   0  0  0  0  0  0  0  0  0  0  0  0
  1  2  1  0
  2  3  1  0
  3  4  2  0
  1  5  2  0
  5  6  1  0
  6  7  2  0
  7  8  1  0
  8  9  1  0
  9 10  2  0
  7 11  1  0
 11 12  2  0
 12  1  1  0
  5  4  1  0
 11 10  1  0
  3 13  1  0
  4 14  1  0
  6 15  1  0
  9 16  1  0
 10 17  1  0
 12 18  1  0
M  END
