
     RDKit          3D

 49 56  0  0  0  0  0  0  0  0999 V2000
   -6.3415    2.3089   -0.8375 C   0  0  0  0  0  0  0  0  0  0  0  0
   -5.1853    2.8951   -1.3084 N   0  0  0  0  0  0  0  0  0  0  0  0
   -4.0922    2.1097   -1.0063 C   0  0  0  0  0  0  0  0  0  0  0  0
   -4.5540    1.0083   -0.3259 C   0  0  0  0  0  0  0  0  0  0  0  0
   -3.8118   -0.0686    0.1745 C   0  0  0  0  0  0  0  0  0  0  0  0
   -4.6776   -1.0108    0.7947 C   0  0  0  0  0  0  0  0  0  0  0  0
   -6.1086   -0.8699    0.8872 C   0  0  0  0  0  0  0  0  0  0  0  0
   -6.8331    0.2279    0.3711 C   0  0  0  0  0  0  0  0  0  0  0  0
   -5.9731    1.1366   -0.2298 C   0  0  0  0  0  0  0  0  0  0  0  0
   -2.3741   -0.1946    0.0941 C   0  0  0  0  0  0  0  0  0  0  0  0
   -1.4563    0.6832    0.7292 C   0  0  0  0  0  0  0  0  0  0  0  0
   -0.0211    0.5741    0.6775 C   0  0  0  0  0  0  0  0  0  0  0  0
    0.7594    1.5115    1.3529 C   0  0  0  0  0  0  0  0  0  0  0  0
    2.1604    1.4563    1.3381 C   0  0  0  0  0  0  0  0  0  0  0  0
    2.8276    0.4367    0.6306 C   0  0  0  0  0  0  0  0  0  0  0  0
    2.0549   -0.5176   -0.0553 C   0  0  0  0  0  0  0  0  0  0  0  0
    2.9375   -1.3956   -0.6562 N   0  0  0  0  0  0  0  0  0  0  0  0
    4.2479   -1.0634   -0.4007 C   0  0  0  0  0  0  0  0  0  0  0  0
    5.4547   -1.6779   -0.8122 C   0  0  0  0  0  0  0  0  0  0  0  0
    6.6969   -1.1459   -0.4169 C   0  0  0  0  0  0  0  0  0  0  0  0
    6.5892   -0.0081    0.3816 C   0  0  0  0  0  0  0  0  0  0  0  0
    7.7029    0.6447    0.8598 C   0  0  0  0  0  0  0  0  0  0  0  0
    7.2812    2.0175    1.8183 S   0  0  0  0  0  0  0  0  0  0  0  0
    5.5909    1.7472    1.5994 C   0  0  0  0  0  0  0  0  0  0  0  0
    5.4081    0.6433    0.8197 C   0  0  0  0  0  0  0  0  0  0  0  0
    4.1651    0.0667    0.3928 C   0  0  0  0  0  0  0  0  0  0  0  0
    0.6482   -0.4700   -0.0466 C   0  0  0  0  0  0  0  0  0  0  0  0
   -0.2621   -1.3381   -0.6767 C   0  0  0  0  0  0  0  0  0  0  0  0
   -0.0152   -2.4402   -1.4635 C   0  0  0  0  0  0  0  0  0  0  0  0
   -1.2325   -2.9546   -1.8638 N   0  0  0  0  0  0  0  0  0  0  0  0
   -2.2585   -2.2022   -1.3482 C   0  0  0  0  0  0  0  0  0  0  0  0
   -1.6918   -1.1981   -0.6007 C   0  0  0  0  0  0  0  0  0  0  0  0
   -7.3019    2.7824   -0.9876 H   0  0  0  0  0  0  0  0  0  0  0  0
   -5.1438    3.7721   -1.8106 H   0  0  0  0  0  0  0  0  0  0  0  0
   -3.0989    2.4105   -1.3112 H   0  0  0  0  0  0  0  0  0  0  0  0
   -4.2323   -1.9018    1.2406 H   0  0  0  0  0  0  0  0  0  0  0  0
   -6.6634   -1.6621    1.3909 H   0  0  0  0  0  0  0  0  0  0  0  0
   -7.9062    0.3251    0.4444 H   0  0  0  0  0  0  0  0  0  0  0  0
   -1.8850    1.5041    1.3090 H   0  0  0  0  0  0  0  0  0  0  0  0
    0.2863    2.3160    1.9135 H   0  0  0  0  0  0  0  0  0  0  0  0
    2.7130    2.2134    1.8827 H   0  0  0  0  0  0  0  0  0  0  0  0
    2.6638   -2.1860   -1.2141 H   0  0  0  0  0  0  0  0  0  0  0  0
    5.4299   -2.5671   -1.4378 H   0  0  0  0  0  0  0  0  0  0  0  0
    7.6343   -1.5970   -0.7180 H   0  0  0  0  0  0  0  0  0  0  0  0
    8.7462    0.4045    0.7088 H   0  0  0  0  0  0  0  0  0  0  0  0
    4.8799    2.4151    2.0573 H   0  0  0  0  0  0  0  0  0  0  0  0
    0.8831   -2.9290   -1.8009 H   0  0  0  0  0  0  0  0  0  0  0  0
   -1.3527   -3.7636   -2.4593 H   0  0  0  0  0  0  0  0  0  0  0  0
   -3.2886   -2.4491   -1.5685 H   0  0  0  0  0  0  0  0  0  0  0  0
  1  2  1  0
  2  3  1  0
  3  4  2  0
  4  5  1  0
  5  6  2  0
  6  7  1  0
  7  8  2  0
  8  9  1  0
  5 10  1  0
 10 11  2  0
 11 12  1  0
 12 13  2  0
 13 14  1  0
 14 15  2  0
 15 16  1  0
 16 17  1  0
 17 18  1  0
 18 19  1  0
 19 20  2  0
 20 21  1  0
 21 22  2  0
 22 23  1  0
 23 24  1  0
 24 25  2  0
 25 26  1  0
 16 27  2  0
 27 28  1  0
 28 29  2  0
 29 30  1  0
 30 31  1  0
 31 32  2  0
  9  1  2  0
 32 10  1  0
  9  4  1  0
 27 12  1  0
 32 28  1  0
 26 15  1  0
 26 18  2  0
 25 21  1  0
  1 33  1  0
  2 34  1  0
  3 35  1  0
  6 36  1  0
  7 37  1  0
  8 38  1  0
 11 39  1  0
 13 40  1  0
 14 41  1  0
 17 42  1  0
 19 43  1  0
 20 44  1  0
 22 45  1  0
 24 46  1  0
 29 47  1  0
 30 48  1  0
 31 49  1  0
M  END
