
     RDKit          3D

 42 48  0  0  0  0  0  0  0  0999 V2000
   -5.8427    1.8613    1.2575 C   0  0  0  0  0  0  0  0  0  0  0  0
   -4.6709    2.0934    1.9451 N   0  0  0  0  0  0  0  0  0  0  0  0
   -3.6651    1.2752    1.4695 C   0  0  0  0  0  0  0  0  0  0  0  0
   -4.1987    0.5141    0.4558 C   0  0  0  0  0  0  0  0  0  0  0  0
   -3.5818   -0.4785   -0.3166 C   0  0  0  0  0  0  0  0  0  0  0  0
   -4.5055   -1.0791   -1.2072 C   0  0  0  0  0  0  0  0  0  0  0  0
   -5.8899   -0.6975   -1.3115 C   0  0  0  0  0  0  0  0  0  0  0  0
   -6.4967    0.3156   -0.5343 C   0  0  0  0  0  0  0  0  0  0  0  0
   -5.5769    0.8775    0.3414 C   0  0  0  0  0  0  0  0  0  0  0  0
   -2.1834   -0.8456   -0.2317 C   0  0  0  0  0  0  0  0  0  0  0  0
   -1.5786   -2.0982   -0.2305 C   0  0  0  0  0  0  0  0  0  0  0  0
   -0.1794   -1.9131   -0.1685 C   0  0  0  0  0  0  0  0  0  0  0  0
    0.8374   -2.8053   -0.1335 N   0  0  0  0  0  0  0  0  0  0  0  0
    2.1226   -2.3523   -0.0811 C   0  0  0  0  0  0  0  0  0  0  0  0
    2.4828   -0.9964   -0.0645 C   0  0  0  0  0  0  0  0  0  0  0  0
    1.4690   -0.0559   -0.1016 C   0  0  0  0  0  0  0  0  0  0  0  0
    1.9729    1.2133   -0.0840 N   0  0  0  0  0  0  0  0  0  0  0  0
    3.3535    1.1536   -0.0302 C   0  0  0  0  0  0  0  0  0  0  0  0
    4.3410    2.1765    0.0073 C   0  0  0  0  0  0  0  0  0  0  0  0
    5.7171    1.8556    0.0604 C   0  0  0  0  0  0  0  0  0  0  0  0
    5.9420    0.4846    0.0693 C   0  0  0  0  0  0  0  0  0  0  0  0
    7.1655   -0.1386    0.1162 C   0  0  0  0  0  0  0  0  0  0  0  0
    7.0014   -1.5042    0.1100 O   0  0  0  0  0  0  0  0  0  0  0  0
    5.6512   -1.7601    0.0582 C   0  0  0  0  0  0  0  0  0  0  0  0
    5.0107   -0.5623    0.0336 C   0  0  0  0  0  0  0  0  0  0  0  0
    3.6367   -0.2099   -0.0192 C   0  0  0  0  0  0  0  0  0  0  0  0
    0.0283   -0.5561   -0.1551 C   0  0  0  0  0  0  0  0  0  0  0  0
   -1.1643    0.0889   -0.2016 N   0  0  0  0  0  0  0  0  0  0  0  0
   -6.7452    2.4043    1.5030 H   0  0  0  0  0  0  0  0  0  0  0  0
   -4.5696    2.7516    2.7069 H   0  0  0  0  0  0  0  0  0  0  0  0
   -2.6852    1.3027    1.9250 H   0  0  0  0  0  0  0  0  0  0  0  0
   -4.1532   -1.8727   -1.8673 H   0  0  0  0  0  0  0  0  0  0  0  0
   -6.5073   -1.2280   -2.0374 H   0  0  0  0  0  0  0  0  0  0  0  0
   -7.5388    0.5879   -0.6171 H   0  0  0  0  0  0  0  0  0  0  0  0
   -2.0912   -3.0495   -0.2606 H   0  0  0  0  0  0  0  0  0  0  0  0
    2.8720   -3.1367   -0.0543 H   0  0  0  0  0  0  0  0  0  0  0  0
    1.4325    2.0655   -0.1083 H   0  0  0  0  0  0  0  0  0  0  0  0
    4.0403    3.2220   -0.0052 H   0  0  0  0  0  0  0  0  0  0  0  0
    6.4915    2.6107    0.0896 H   0  0  0  0  0  0  0  0  0  0  0  0
    8.1912    0.1998    0.1553 H   0  0  0  0  0  0  0  0  0  0  0  0
    5.3707   -2.8024    0.0474 H   0  0  0  0  0  0  0  0  0  0  0  0
   -1.3064    1.0883   -0.2273 H   0  0  0  0  0  0  0  0  0  0  0  0
  1  2  1  0
  2  3  1  0
  3  4  2  0
  4  5  1  0
  5  6  2  0
  6  7  1  0
  7  8  2  0
  8  9  1  0
  5 10  1  0
 10 11  2  0
 11 12  1  0
 12 13  2  0
 13 14  1  0
 14 15  2  0
 15 16  1  0
 16 17  1  0
 17 18  1  0
 18 19  1  0
 19 20  2  0
 20 21  1  0
 21 22  2  0
 22 23  1  0
 23 24  1  0
 24 25  2  0
 25 26  1  0
 16 27  2  0
 27 28  1  0
  9  1  2  0
 28 10  1  0
  9  4  1  0
 27 12  1  0
 26 15  1  0
 26 18  2  0
 25 21  1  0
  1 29  1  0
  2 30  1  0
  3 31  1  0
  6 32  1  0
  7 33  1  0
  8 34  1  0
 11 35  1  0
 14 36  1  0
 17 37  1  0
 19 38  1  0
 20 39  1  0
 22 40  1  0
 24 41  1  0
 28 42  1  0
M  END
