
     RDKit          3D

 48 54  0  0  0  0  0  0  0  0999 V2000
   -7.3856   -0.1253   -2.5569 C   0  0  0  0  0  0  0  0  0  0  0  0
   -6.2886   -0.6584   -3.2001 N   0  0  0  0  0  0  0  0  0  0  0  0
   -5.1534   -0.4842   -2.4358 C   0  0  0  0  0  0  0  0  0  0  0  0
   -5.5296    0.1606   -1.2815 C   0  0  0  0  0  0  0  0  0  0  0  0
   -4.7179    0.5615   -0.2118 C   0  0  0  0  0  0  0  0  0  0  0  0
   -5.4997    1.2390    0.7650 C   0  0  0  0  0  0  0  0  0  0  0  0
   -6.9193    1.4650    0.6651 C   0  0  0  0  0  0  0  0  0  0  0  0
   -7.7151    1.0444   -0.4236 C   0  0  0  0  0  0  0  0  0  0  0  0
   -6.9362    0.3939   -1.3705 C   0  0  0  0  0  0  0  0  0  0  0  0
   -3.2838    0.3282   -0.1050 C   0  0  0  0  0  0  0  0  0  0  0  0
   -2.7567   -0.9700   -0.0934 C   0  0  0  0  0  0  0  0  0  0  0  0
   -1.3784   -1.1893    0.0214 C   0  0  0  0  0  0  0  0  0  0  0  0
   -0.4789   -0.1173    0.1291 C   0  0  0  0  0  0  0  0  0  0  0  0
   -1.0102    1.1808    0.1232 C   0  0  0  0  0  0  0  0  0  0  0  0
   -2.3889    1.3997    0.0099 C   0  0  0  0  0  0  0  0  0  0  0  0
    0.9618   -0.3563    0.2681 C   0  0  0  0  0  0  0  0  0  0  0  0
    1.4967   -1.2219    1.2557 C   0  0  0  0  0  0  0  0  0  0  0  0
    2.8774   -1.4770    1.4211 C   0  0  0  0  0  0  0  0  0  0  0  0
    3.8622   -0.8897    0.6067 C   0  0  0  0  0  0  0  0  0  0  0  0
    5.2837   -1.1301    0.7833 C   0  0  0  0  0  0  0  0  0  0  0  0
    5.9589   -2.6254    0.2586 S   0  0  0  0  0  0  0  0  0  0  0  0
    7.5449   -2.1742    0.7375 C   0  0  0  0  0  0  0  0  0  0  0  0
    7.5598   -0.9215    1.2950 C   0  0  0  0  0  0  0  0  0  0  0  0
    8.6937   -0.3330    1.7676 N   0  0  0  0  0  0  0  0  0  0  0  0
    8.4168    0.9034    2.2682 C   0  0  0  0  0  0  0  0  0  0  0  0
    7.1468    1.4941    2.3079 C   0  0  0  0  0  0  0  0  0  0  0  0
    5.9991    0.9214    1.8514 N   0  0  0  0  0  0  0  0  0  0  0  0
    6.2506   -0.3146    1.3284 C   0  0  0  0  0  0  0  0  0  0  0  0
    3.4096   -0.0106   -0.4159 C   0  0  0  0  0  0  0  0  0  0  0  0
    4.1677    0.6402   -1.3175 N   0  0  0  0  0  0  0  0  0  0  0  0
    3.1374    1.5190   -2.2679 S   0  0  0  0  0  0  0  0  0  0  0  0
    1.6774    1.1097   -1.6054 N   0  0  0  0  0  0  0  0  0  0  0  0
    1.9256    0.2637   -0.5884 C   0  0  0  0  0  0  0  0  0  0  0  0
   -8.3656   -0.1628   -3.0121 H   0  0  0  0  0  0  0  0  0  0  0  0
   -6.3096   -1.1036   -4.1082 H   0  0  0  0  0  0  0  0  0  0  0  0
   -4.1933   -0.8293   -2.7949 H   0  0  0  0  0  0  0  0  0  0  0  0
   -4.9985    1.6078    1.6614 H   0  0  0  0  0  0  0  0  0  0  0  0
   -7.4065    1.9947    1.4843 H   0  0  0  0  0  0  0  0  0  0  0  0
   -8.7783    1.2214   -0.4919 H   0  0  0  0  0  0  0  0  0  0  0  0
   -3.4233   -1.8269   -0.1707 H   0  0  0  0  0  0  0  0  0  0  0  0
   -1.0139   -2.2145    0.0155 H   0  0  0  0  0  0  0  0  0  0  0  0
   -0.3519    2.0438    0.2061 H   0  0  0  0  0  0  0  0  0  0  0  0
   -2.7593    2.4229   -0.0011 H   0  0  0  0  0  0  0  0  0  0  0  0
    0.8082   -1.7133    1.9462 H   0  0  0  0  0  0  0  0  0  0  0  0
    3.1843   -2.1494    2.2229 H   0  0  0  0  0  0  0  0  0  0  0  0
    8.3799   -2.8437    0.5914 H   0  0  0  0  0  0  0  0  0  0  0  0
    9.2778    1.4392    2.6583 H   0  0  0  0  0  0  0  0  0  0  0  0
    7.0221    2.4881    2.7286 H   0  0  0  0  0  0  0  0  0  0  0  0
  1  2  1  0
  2  3  1  0
  3  4  2  0
  4  5  1  0
  5  6  2  0
  6  7  1  0
  7  8  2  0
  8  9  1  0
  5 10  1  0
 10 11  2  0
 11 12  1  0
 12 13  2  0
 13 14  1  0
 14 15  2  0
 13 16  1  0
 16 17  2  0
 17 18  1  0
 18 19  2  0
 19 20  1  0
 20 21  1  0
 21 22  1  0
 22 23  2  0
 23 24  1  0
 24 25  2  0
 25 26  1  0
 26 27  2  0
 27 28  1  0
 19 29  1  0
 29 30  2  0
 30 31  1  0
 31 32  1  0
 32 33  2  0
  9  1  2  0
 15 10  1  0
 33 16  1  0
  9  4  1  0
 28 20  2  0
 33 29  1  0
 28 23  1  0
  1 34  1  0
  2 35  1  0
  3 36  1  0
  6 37  1  0
  7 38  1  0
  8 39  1  0
 11 40  1  0
 12 41  1  0
 14 42  1  0
 15 43  1  0
 17 44  1  0
 18 45  1  0
 22 46  1  0
 25 47  1  0
 26 48  1  0
M  END
