
     RDKit          3D

 50 56  0  0  0  0  0  0  0  0999 V2000
    6.1959   -1.2585   -1.6047 C   0  0  0  0  0  0  0  0  0  0  0  0
    5.1177   -1.9784   -2.0748 N   0  0  0  0  0  0  0  0  0  0  0  0
    3.9499   -1.5242   -1.4975 C   0  0  0  0  0  0  0  0  0  0  0  0
    4.2855   -0.5055   -0.6378 C   0  0  0  0  0  0  0  0  0  0  0  0
    3.4320    0.2669    0.1612 C   0  0  0  0  0  0  0  0  0  0  0  0
    4.1825    1.2430    0.8739 C   0  0  0  0  0  0  0  0  0  0  0  0
    5.6120    1.4008    0.7863 C   0  0  0  0  0  0  0  0  0  0  0  0
    6.4501    0.6047   -0.0260 C   0  0  0  0  0  0  0  0  0  0  0  0
    5.7017   -0.3369   -0.7185 C   0  0  0  0  0  0  0  0  0  0  0  0
    1.9880    0.1036    0.2534 C   0  0  0  0  0  0  0  0  0  0  0  0
    1.4203   -1.0654    0.7277 C   0  0  0  0  0  0  0  0  0  0  0  0
    0.0313   -1.1889    0.8017 C   0  0  0  0  0  0  0  0  0  0  0  0
   -0.8777   -0.1824    0.3816 C   0  0  0  0  0  0  0  0  0  0  0  0
   -0.3076    1.0654    0.0165 C   0  0  0  0  0  0  0  0  0  0  0  0
    1.1153    1.1503   -0.0734 C   0  0  0  0  0  0  0  0  0  0  0  0
   -1.1574    2.1919   -0.2136 C   0  0  0  0  0  0  0  0  0  0  0  0
   -0.6591    3.4650   -0.6188 C   0  0  0  0  0  0  0  0  0  0  0  0
   -1.4701    4.5854   -0.7888 C   0  0  0  0  0  0  0  0  0  0  0  0
   -2.8220    4.4743   -0.5587 C   0  0  0  0  0  0  0  0  0  0  0  0
   -3.3460    3.2416   -0.1714 C   0  0  0  0  0  0  0  0  0  0  0  0
   -2.5516    2.0707    0.0094 C   0  0  0  0  0  0  0  0  0  0  0  0
   -3.1145    0.7972    0.3666 C   0  0  0  0  0  0  0  0  0  0  0  0
   -4.4841    0.6617    0.6943 C   0  0  0  0  0  0  0  0  0  0  0  0
   -5.0893   -0.5628    0.9520 C   0  0  0  0  0  0  0  0  0  0  0  0
   -4.3747   -1.7356    0.7911 C   0  0  0  0  0  0  0  0  0  0  0  0
   -5.0488   -2.9628    0.9310 C   0  0  0  0  0  0  0  0  0  0  0  0
   -4.4059   -4.1671    0.6741 C   0  0  0  0  0  0  0  0  0  0  0  0
   -3.0921   -4.1476    0.2438 C   0  0  0  0  0  0  0  0  0  0  0  0
   -2.4184   -2.9259    0.1244 C   0  0  0  0  0  0  0  0  0  0  0  0
   -3.0011   -1.6713    0.4565 C   0  0  0  0  0  0  0  0  0  0  0  0
   -2.3123   -0.3742    0.4002 C   0  0  0  0  0  0  0  0  0  0  0  0
    7.1970   -1.4714   -1.9533 H   0  0  0  0  0  0  0  0  0  0  0  0
    5.1729   -2.7263   -2.7536 H   0  0  0  0  0  0  0  0  0  0  0  0
    2.9996   -1.9677   -1.7623 H   0  0  0  0  0  0  0  0  0  0  0  0
    3.6474    1.9163    1.5457 H   0  0  0  0  0  0  0  0  0  0  0  0
    6.0727    2.1848    1.3881 H   0  0  0  0  0  0  0  0  0  0  0  0
    7.5208    0.7319   -0.0873 H   0  0  0  0  0  0  0  0  0  0  0  0
    2.0485   -1.8868    1.0652 H   0  0  0  0  0  0  0  0  0  0  0  0
   -0.3337   -2.0996    1.2706 H   0  0  0  0  0  0  0  0  0  0  0  0
    1.5889    2.0733   -0.3966 H   0  0  0  0  0  0  0  0  0  0  0  0
    0.3973    3.6193   -0.8168 H   0  0  0  0  0  0  0  0  0  0  0  0
   -1.0380    5.5326   -1.0987 H   0  0  0  0  0  0  0  0  0  0  0  0
   -3.4764    5.3316   -0.6877 H   0  0  0  0  0  0  0  0  0  0  0  0
   -4.4234    3.2165   -0.0371 H   0  0  0  0  0  0  0  0  0  0  0  0
   -5.1333    1.5281    0.7783 H   0  0  0  0  0  0  0  0  0  0  0  0
   -6.1455   -0.5799    1.2116 H   0  0  0  0  0  0  0  0  0  0  0  0
   -6.0983   -2.9860    1.2185 H   0  0  0  0  0  0  0  0  0  0  0  0
   -4.9405   -5.1073    0.7722 H   0  0  0  0  0  0  0  0  0  0  0  0
   -2.5869   -5.0736   -0.0171 H   0  0  0  0  0  0  0  0  0  0  0  0
   -1.4188   -2.9708   -0.3010 H   0  0  0  0  0  0  0  0  0  0  0  0
  1  2  1  0
  2  3  1  0
  3  4  2  0
  4  5  1  0
  5  6  2  0
  6  7  1  0
  7  8  2  0
  8  9  1  0
  5 10  1  0
 10 11  2  0
 11 12  1  0
 12 13  2  0
 13 14  1  0
 14 15  2  0
 14 16  1  0
 16 17  2  0
 17 18  1  0
 18 19  2  0
 19 20  1  0
 20 21  2  0
 21 22  1  0
 22 23  2  0
 23 24  1  0
 24 25  2  0
 25 26  1  0
 26 27  2  0
 27 28  1  0
 28 29  2  0
 29 30  1  0
 30 31  2  0
  9  1  2  0
 15 10  1  0
 21 16  1  0
 31 22  1  0
  9  4  1  0
 31 13  1  0
 30 25  1  0
  1 32  1  0
  2 33  1  0
  3 34  1  0
  6 35  1  0
  7 36  1  0
  8 37  1  0
 11 38  1  0
 12 39  1  0
 15 40  1  0
 17 41  1  0
 18 42  1  0
 19 43  1  0
 20 44  1  0
 23 45  1  0
 24 46  1  0
 26 47  1  0
 27 48  1  0
 28 49  1  0
 29 50  1  0
M  END
