
     RDKit          3D

 40 46  0  0  0  0  0  0  0  0999 V2000
   -6.0417   -0.2960   -1.7761 C   0  0  0  0  0  0  0  0  0  0  0  0
   -4.9327   -0.1796   -2.5871 N   0  0  0  0  0  0  0  0  0  0  0  0
   -3.7987    0.0102   -1.8234 C   0  0  0  0  0  0  0  0  0  0  0  0
   -4.1856    0.0023   -0.5043 C   0  0  0  0  0  0  0  0  0  0  0  0
   -3.3838    0.1683    0.6331 C   0  0  0  0  0  0  0  0  0  0  0  0
   -4.1880    0.1333    1.8065 C   0  0  0  0  0  0  0  0  0  0  0  0
   -5.6165   -0.0546    1.8135 C   0  0  0  0  0  0  0  0  0  0  0  0
   -6.4008   -0.2235    0.6509 C   0  0  0  0  0  0  0  0  0  0  0  0
   -5.6022   -0.1799   -0.4832 C   0  0  0  0  0  0  0  0  0  0  0  0
   -1.9414    0.3545    0.6247 C   0  0  0  0  0  0  0  0  0  0  0  0
   -1.3548    1.4939    1.1670 C   0  0  0  0  0  0  0  0  0  0  0  0
   -0.0313    1.7648    1.2239 N   0  0  0  0  0  0  0  0  0  0  0  0
    0.7873    0.8138    0.6895 C   0  0  0  0  0  0  0  0  0  0  0  0
    0.3008   -0.3588    0.1266 C   0  0  0  0  0  0  0  0  0  0  0  0
   -1.0801   -0.6074    0.0891 C   0  0  0  0  0  0  0  0  0  0  0  0
    1.5737   -1.3380   -0.4487 S   0  0  0  0  0  0  0  0  0  0  0  0
    2.8021   -0.2236    0.0361 C   0  0  0  0  0  0  0  0  0  0  0  0
    2.2227    0.8975    0.6405 C   0  0  0  0  0  0  0  0  0  0  0  0
    3.0693    1.9135    1.1010 C   0  0  0  0  0  0  0  0  0  0  0  0
    4.4144    1.8314    0.9737 N   0  0  0  0  0  0  0  0  0  0  0  0
    4.9781    0.7697    0.4003 C   0  0  0  0  0  0  0  0  0  0  0  0
    6.3778    0.7659    0.3093 C   0  0  0  0  0  0  0  0  0  0  0  0
    7.1491   -0.2641   -0.2615 C   0  0  0  0  0  0  0  0  0  0  0  0
    6.4231   -1.3595   -0.7705 C   0  0  0  0  0  0  0  0  0  0  0  0
    6.9584   -2.4418   -1.3532 N   0  0  0  0  0  0  0  0  0  0  0  0
    5.6907   -3.4250   -1.7701 S   0  0  0  0  0  0  0  0  0  0  0  0
    4.4125   -2.5203   -1.2318 N   0  0  0  0  0  0  0  0  0  0  0  0
    4.9141   -1.3946   -0.6924 C   0  0  0  0  0  0  0  0  0  0  0  0
    4.2045   -0.3098   -0.0973 C   0  0  0  0  0  0  0  0  0  0  0  0
   -7.0248   -0.4425   -2.2021 H   0  0  0  0  0  0  0  0  0  0  0  0
   -4.9485   -0.2182   -3.5980 H   0  0  0  0  0  0  0  0  0  0  0  0
   -2.8362    0.1350   -2.3007 H   0  0  0  0  0  0  0  0  0  0  0  0
   -3.6990    0.2427    2.7762 H   0  0  0  0  0  0  0  0  0  0  0  0
   -6.1214   -0.0684    2.7802 H   0  0  0  0  0  0  0  0  0  0  0  0
   -7.4720   -0.3614    0.6659 H   0  0  0  0  0  0  0  0  0  0  0  0
   -1.9793    2.2777    1.5941 H   0  0  0  0  0  0  0  0  0  0  0  0
   -1.4648   -1.5281   -0.3410 H   0  0  0  0  0  0  0  0  0  0  0  0
    2.6857    2.8101    1.5793 H   0  0  0  0  0  0  0  0  0  0  0  0
    6.9090    1.6301    0.7135 H   0  0  0  0  0  0  0  0  0  0  0  0
    8.2303   -0.2196   -0.3076 H   0  0  0  0  0  0  0  0  0  0  0  0
  1  2  1  0
  2  3  1  0
  3  4  2  0
  4  5  1  0
  5  6  2  0
  6  7  1  0
  7  8  2  0
  8  9  1  0
  5 10  1  0
 10 11  2  0
 11 12  1  0
 12 13  2  0
 13 14  1  0
 14 15  2  0
 14 16  1  0
 16 17  1  0
 17 18  2  0
 18 19  1  0
 19 20  2  0
 20 21  1  0
 21 22  1  0
 22 23  2  0
 23 24  1  0
 24 25  2  0
 25 26  1  0
 26 27  1  0
 27 28  2  0
 28 29  1  0
  9  1  2  0
 15 10  1  0
 29 17  1  0
  9  4  1  0
 18 13  1  0
 29 21  2  0
 28 24  1  0
  1 30  1  0
  2 31  1  0
  3 32  1  0
  6 33  1  0
  7 34  1  0
  8 35  1  0
 11 36  1  0
 15 37  1  0
 19 38  1  0
 22 39  1  0
 23 40  1  0
M  END
