
     RDKit          3D

 47 54  0  0  0  0  0  0  0  0999 V2000
   -2.5700    2.3180   -0.2211 C   0  0  0  0  0  0  0  0  0  0  0  0
   -1.6476    3.3074   -0.4513 N   0  0  0  0  0  0  0  0  0  0  0  0
   -0.3711    2.7917   -0.3763 C   0  0  0  0  0  0  0  0  0  0  0  0
   -0.4649    1.4475   -0.0952 C   0  0  0  0  0  0  0  0  0  0  0  0
   -1.8720    1.1531   -0.0091 C   0  0  0  0  0  0  0  0  0  0  0  0
   -2.4257   -0.0995    0.2657 C   0  0  0  0  0  0  0  0  0  0  0  0
   -1.4029   -1.0587    0.4652 C   0  0  0  0  0  0  0  0  0  0  0  0
    0.0116   -0.7993    0.3831 C   0  0  0  0  0  0  0  0  0  0  0  0
    0.8927   -1.8489    0.5958 C   0  0  0  0  0  0  0  0  0  0  0  0
    2.2765   -1.6623    0.5291 C   0  0  0  0  0  0  0  0  0  0  0  0
    2.8476   -0.3979    0.2419 C   0  0  0  0  0  0  0  0  0  0  0  0
    1.9695    0.6848    0.0219 C   0  0  0  0  0  0  0  0  0  0  0  0
    2.8664    2.1329   -0.3132 S   0  0  0  0  0  0  0  0  0  0  0  0
    4.3956    1.3813   -0.1771 C   0  0  0  0  0  0  0  0  0  0  0  0
    5.6830    1.9872   -0.3342 C   0  0  0  0  0  0  0  0  0  0  0  0
    6.8794    1.2589   -0.1970 C   0  0  0  0  0  0  0  0  0  0  0  0
    6.6290   -0.0683    0.0987 C   0  0  0  0  0  0  0  0  0  0  0  0
    7.5890   -1.0314    0.2917 C   0  0  0  0  0  0  0  0  0  0  0  0
    6.9956   -2.2364    0.5671 O   0  0  0  0  0  0  0  0  0  0  0  0
    5.6361   -2.0403    0.5495 C   0  0  0  0  0  0  0  0  0  0  0  0
    5.4013   -0.7294    0.2666 C   0  0  0  0  0  0  0  0  0  0  0  0
    4.1965    0.0439    0.1198 C   0  0  0  0  0  0  0  0  0  0  0  0
    0.5613    0.4965    0.0898 C   0  0  0  0  0  0  0  0  0  0  0  0
   -3.8368   -0.3906    0.3542 C   0  0  0  0  0  0  0  0  0  0  0  0
   -4.5157   -0.7622    1.5462 C   0  0  0  0  0  0  0  0  0  0  0  0
   -5.9244   -1.0645    1.6255 C   0  0  0  0  0  0  0  0  0  0  0  0
   -6.8087   -1.0368    0.5225 C   0  0  0  0  0  0  0  0  0  0  0  0
   -6.1229   -0.6827   -0.6306 C   0  0  0  0  0  0  0  0  0  0  0  0
   -6.6394   -0.5639   -1.8927 C   0  0  0  0  0  0  0  0  0  0  0  0
   -5.6426   -0.2098   -2.7616 O   0  0  0  0  0  0  0  0  0  0  0  0
   -4.4835   -0.1049   -2.0400 C   0  0  0  0  0  0  0  0  0  0  0  0
   -4.7323   -0.3791   -0.7191 C   0  0  0  0  0  0  0  0  0  0  0  0
   -3.6290    2.5401   -0.2307 H   0  0  0  0  0  0  0  0  0  0  0  0
   -1.8696    4.2761   -0.6417 H   0  0  0  0  0  0  0  0  0  0  0  0
    0.4621    3.4593   -0.5302 H   0  0  0  0  0  0  0  0  0  0  0  0
   -1.7235   -2.0790    0.6894 H   0  0  0  0  0  0  0  0  0  0  0  0
    0.5208   -2.8475    0.8198 H   0  0  0  0  0  0  0  0  0  0  0  0
    2.9068   -2.5271    0.7055 H   0  0  0  0  0  0  0  0  0  0  0  0
    5.7391    3.0497   -0.5683 H   0  0  0  0  0  0  0  0  0  0  0  0
    7.8574    1.7056   -0.3134 H   0  0  0  0  0  0  0  0  0  0  0  0
    8.6698   -1.0433    0.2740 H   0  0  0  0  0  0  0  0  0  0  0  0
    5.0492   -2.9216    0.7536 H   0  0  0  0  0  0  0  0  0  0  0  0
   -3.9400   -0.8160    2.4722 H   0  0  0  0  0  0  0  0  0  0  0  0
   -6.3289   -1.3315    2.6030 H   0  0  0  0  0  0  0  0  0  0  0  0
   -7.8618   -1.2675    0.5921 H   0  0  0  0  0  0  0  0  0  0  0  0
   -7.6182   -0.6877   -2.3334 H   0  0  0  0  0  0  0  0  0  0  0  0
   -3.6047    0.1670   -2.6079 H   0  0  0  0  0  0  0  0  0  0  0  0
  1  2  1  0
  2  3  1  0
  3  4  2  0
  4  5  1  0
  5  6  1  0
  6  7  2  0
  7  8  1  0
  8  9  2  0
  9 10  1  0
 10 11  2  0
 11 12  1  0
 12 13  1  0
 13 14  1  0
 14 15  1  0
 15 16  2  0
 16 17  1  0
 17 18  2  0
 18 19  1  0
 19 20  1  0
 20 21  2  0
 21 22  1  0
 12 23  2  0
  6 24  1  0
 24 25  2  0
 25 26  1  0
 26 27  2  0
 27 28  1  0
 28 29  2  0
 29 30  1  0
 30 31  1  0
 31 32  2  0
  5  1  2  0
 23  8  1  0
 32 24  1  0
 23  4  1  0
 32 28  1  0
 22 11  1  0
 22 14  2  0
 21 17  1  0
  1 33  1  0
  2 34  1  0
  3 35  1  0
  7 36  1  0
  9 37  1  0
 10 38  1  0
 15 39  1  0
 16 40  1  0
 18 41  1  0
 20 42  1  0
 25 43  1  0
 26 44  1  0
 27 45  1  0
 29 46  1  0
 31 47  1  0
M  END
