
     RDKit          3D

 36 40  0  0  0  0  0  0  0  0999 V2000
    2.9850   -1.0781   -0.0290 Si  0  0  0  0  0  4  0  0  0  0  0  0
    1.5342    0.1078    0.3316 C   0  0  0  0  0  0  0  0  0  0  0  0
    2.0067    1.3543    0.5457 C   0  0  0  0  0  0  0  0  0  0  0  0
    3.4541    1.5119    0.4700 C   0  0  0  0  0  0  0  0  0  0  0  0
    4.1524    0.3933    0.1839 C   0  0  0  0  0  0  0  0  0  0  0  0
    5.5613    0.2922    0.0512 C   0  0  0  0  0  0  0  0  0  0  0  0
    6.3391   -0.5635   -0.7214 C   0  0  0  0  0  0  0  0  0  0  0  0
    7.7108   -0.4296   -0.6201 N   0  0  0  0  0  0  0  0  0  0  0  0
    7.9839    0.5337    0.2274 C   0  0  0  0  0  0  0  0  0  0  0  0
    6.6423    1.3174    0.9394 S   0  0  0  0  0  0  0  0  0  0  0  0
    0.1689   -0.3378    0.3160 C   0  0  0  0  0  0  0  0  0  0  0  0
   -1.1863    0.5995   -0.6716 Si  0  0  0  0  0  4  0  0  0  0  0  0
   -2.3974   -0.7087   -0.0856 C   0  0  0  0  0  0  0  0  0  0  0  0
   -1.7930   -1.6361    0.6822 C   0  0  0  0  0  0  0  0  0  0  0  0
   -0.3683   -1.4278    0.9061 C   0  0  0  0  0  0  0  0  0  0  0  0
   -3.7534   -0.7367   -0.4552 C   0  0  0  0  0  0  0  0  0  0  0  0
   -4.4277   -1.9479   -1.4896 S   0  0  0  0  0  0  0  0  0  0  0  0
   -6.0080   -1.2673   -1.4256 C   0  0  0  0  0  0  0  0  0  0  0  0
   -5.9601   -0.1788   -0.6269 C   0  0  0  0  0  0  0  0  0  0  0  0
   -6.9373    0.7536   -0.2046 C   0  0  0  0  0  0  0  0  0  0  0  0
   -6.4100    1.7283    0.6499 C   0  0  0  0  0  0  0  0  0  0  0  0
   -4.6948    1.6000    1.0164 S   0  0  0  0  0  0  0  0  0  0  0  0
   -4.7258    0.1485   -0.0639 C   0  0  0  0  0  0  0  0  0  0  0  0
    3.1504   -2.1050    1.0325 H   0  0  0  0  0  0  0  0  0  0  0  0
    2.9733   -1.5843   -1.4263 H   0  0  0  0  0  0  0  0  0  0  0  0
    1.3863    2.2137    0.7732 H   0  0  0  0  0  0  0  0  0  0  0  0
    3.8909    2.4907    0.6307 H   0  0  0  0  0  0  0  0  0  0  0  0
    5.9524   -1.3174   -1.3973 H   0  0  0  0  0  0  0  0  0  0  0  0
    8.9994    0.8208    0.4666 H   0  0  0  0  0  0  0  0  0  0  0  0
   -1.4251    1.9527   -0.1049 H   0  0  0  0  0  0  0  0  0  0  0  0
   -0.9244    0.5440   -2.1338 H   0  0  0  0  0  0  0  0  0  0  0  0
   -2.2960   -2.4918    1.1175 H   0  0  0  0  0  0  0  0  0  0  0  0
    0.1842   -2.1265    1.5234 H   0  0  0  0  0  0  0  0  0  0  0  0
   -6.8375   -1.7080   -1.9601 H   0  0  0  0  0  0  0  0  0  0  0  0
   -7.9816    0.7362   -0.4917 H   0  0  0  0  0  0  0  0  0  0  0  0
   -6.9490    2.5466    1.1079 H   0  0  0  0  0  0  0  0  0  0  0  0
  1  2  1  0
  2  3  2  0
  3  4  1  0
  4  5  2  0
  5  6  1  0
  6  7  2  0
  7  8  1  0
  8  9  2  0
  9 10  1  0
  2 11  1  0
 11 12  1  0
 12 13  1  0
 13 14  2  0
 14 15  1  0
 13 16  1  0
 16 17  1  0
 17 18  1  0
 18 19  2  0
 19 20  1  0
 20 21  2  0
 21 22  1  0
 22 23  1  0
  5  1  1  0
 10  6  1  0
 15 11  2  0
 23 16  2  0
 23 19  1  0
  1 24  1  0
  1 25  1  0
  3 26  1  0
  4 27  1  0
  7 28  1  0
  9 29  1  0
 12 30  1  0
 12 31  1  0
 14 32  1  0
 15 33  1  0
 18 34  1  0
 20 35  1  0
 21 36  1  0
M  END
