
     RDKit          3D

 43 49  0  0  0  0  0  0  0  0999 V2000
   -1.7962    2.0933   -0.6880 C   0  0  0  0  0  0  0  0  0  0  0  0
   -0.6378    2.7576   -1.0119 N   0  0  0  0  0  0  0  0  0  0  0  0
    0.4284    1.8896   -0.9624 C   0  0  0  0  0  0  0  0  0  0  0  0
   -0.0237    0.6767   -0.4935 C   0  0  0  0  0  0  0  0  0  0  0  0
   -1.4584    0.7831   -0.4391 C   0  0  0  0  0  0  0  0  0  0  0  0
   -2.3441   -0.2665   -0.1913 C   0  0  0  0  0  0  0  0  0  0  0  0
   -1.6184   -1.4774   -0.1013 C   0  0  0  0  0  0  0  0  0  0  0  0
   -0.1805   -1.6035   -0.1905 C   0  0  0  0  0  0  0  0  0  0  0  0
    0.3766   -2.8675   -0.2311 C   0  0  0  0  0  0  0  0  0  0  0  0
    1.6881   -3.1333   -0.3979 N   0  0  0  0  0  0  0  0  0  0  0  0
    2.5548   -2.1142   -0.3985 C   0  0  0  0  0  0  0  0  0  0  0  0
    3.8792   -2.4607   -0.5831 C   0  0  0  0  0  0  0  0  0  0  0  0
    4.9008   -1.5197   -0.5395 C   0  0  0  0  0  0  0  0  0  0  0  0
    4.6164   -0.2038   -0.1955 C   0  0  0  0  0  0  0  0  0  0  0  0
    5.6751    0.7057   -0.0269 C   0  0  0  0  0  0  0  0  0  0  0  0
    5.4424    1.9950    0.4392 C   0  0  0  0  0  0  0  0  0  0  0  0
    4.1519    2.3716    0.7708 C   0  0  0  0  0  0  0  0  0  0  0  0
    3.0955    1.4738    0.5829 C   0  0  0  0  0  0  0  0  0  0  0  0
    3.2709    0.1838    0.0280 C   0  0  0  0  0  0  0  0  0  0  0  0
    2.1914   -0.7617   -0.2219 C   0  0  0  0  0  0  0  0  0  0  0  0
    0.7472   -0.5151   -0.2846 C   0  0  0  0  0  0  0  0  0  0  0  0
   -3.7885   -0.1669   -0.1370 C   0  0  0  0  0  0  0  0  0  0  0  0
   -4.5927    0.3809   -1.1478 C   0  0  0  0  0  0  0  0  0  0  0  0
   -5.9616    0.5088   -1.1726 N   0  0  0  0  0  0  0  0  0  0  0  0
   -6.7177    0.0656   -0.1280 C   0  0  0  0  0  0  0  0  0  0  0  0
   -6.0559   -0.5271    0.9644 C   0  0  0  0  0  0  0  0  0  0  0  0
   -6.6309   -1.0243    2.0715 N   0  0  0  0  0  0  0  0  0  0  0  0
   -5.3969   -1.5933    3.0238 S   0  0  0  0  0  0  0  0  0  0  0  0
   -4.0852   -1.2427    2.0729 N   0  0  0  0  0  0  0  0  0  0  0  0
   -4.5525   -0.6493    0.9580 C   0  0  0  0  0  0  0  0  0  0  0  0
   -2.7426    2.6167   -0.7090 H   0  0  0  0  0  0  0  0  0  0  0  0
   -0.5826    3.7278   -1.2956 H   0  0  0  0  0  0  0  0  0  0  0  0
    1.4033    2.2319   -1.2803 H   0  0  0  0  0  0  0  0  0  0  0  0
   -2.1991   -2.3963    0.0177 H   0  0  0  0  0  0  0  0  0  0  0  0
   -0.2439   -3.7596   -0.1783 H   0  0  0  0  0  0  0  0  0  0  0  0
    4.1288   -3.5039   -0.7668 H   0  0  0  0  0  0  0  0  0  0  0  0
    5.9239   -1.8495   -0.7046 H   0  0  0  0  0  0  0  0  0  0  0  0
    6.7006    0.4025   -0.2294 H   0  0  0  0  0  0  0  0  0  0  0  0
    6.2703    2.6838    0.5814 H   0  0  0  0  0  0  0  0  0  0  0  0
    3.9595    3.3547    1.1921 H   0  0  0  0  0  0  0  0  0  0  0  0
    2.1154    1.7863    0.9338 H   0  0  0  0  0  0  0  0  0  0  0  0
   -4.1204    0.7605   -2.0558 H   0  0  0  0  0  0  0  0  0  0  0  0
   -7.7908    0.1868   -0.1910 H   0  0  0  0  0  0  0  0  0  0  0  0
  1  2  1  0
  2  3  1  0
  3  4  2  0
  4  5  1  0
  5  6  1  0
  6  7  2  0
  7  8  1  0
  8  9  2  0
  9 10  1  0
 10 11  2  0
 11 12  1  0
 12 13  2  0
 13 14  1  0
 14 15  2  0
 15 16  1  0
 16 17  2  0
 17 18  1  0
 18 19  2  0
 19 20  1  0
 20 21  2  0
  6 22  1  0
 22 23  2  0
 23 24  1  0
 24 25  2  0
 25 26  1  0
 26 27  2  0
 27 28  1  0
 28 29  1  0
 29 30  2  0
  5  1  2  0
 21  8  1  0
 30 22  1  0
 21  4  1  0
 30 26  1  0
 20 11  1  0
 19 14  1  0
  1 31  1  0
  2 32  1  0
  3 33  1  0
  7 34  1  0
  9 35  1  0
 12 36  1  0
 13 37  1  0
 15 38  1  0
 16 39  1  0
 17 40  1  0
 18 41  1  0
 23 42  1  0
 25 43  1  0
M  END
