
     RDKit          3D

 43 49  0  0  0  0  0  0  0  0999 V2000
   -2.5907   -1.7774   -1.4329 C   0  0  0  0  0  0  0  0  0  0  0  0
   -3.8896   -2.0750   -1.7906 N   0  0  0  0  0  0  0  0  0  0  0  0
   -4.7667   -1.2680   -1.0951 C   0  0  0  0  0  0  0  0  0  0  0  0
   -4.0224   -0.4358   -0.2861 C   0  0  0  0  0  0  0  0  0  0  0  0
   -2.6724   -0.7254   -0.5674 C   0  0  0  0  0  0  0  0  0  0  0  0
   -1.6541   -0.0054    0.1518 C   0  0  0  0  0  0  0  0  0  0  0  0
   -2.1220    0.8149    1.1821 C   0  0  0  0  0  0  0  0  0  0  0  0
   -0.7558    1.3847    2.0980 S   0  0  0  0  0  0  0  0  0  0  0  0
    0.4010    0.6295    1.0653 C   0  0  0  0  0  0  0  0  0  0  0  0
    1.8233    0.6609    1.2182 C   0  0  0  0  0  0  0  0  0  0  0  0
    2.7042    0.0897    0.2742 C   0  0  0  0  0  0  0  0  0  0  0  0
    4.1569    0.1059    0.3985 C   0  0  0  0  0  0  0  0  0  0  0  0
    4.8592    1.3197    0.4638 C   0  0  0  0  0  0  0  0  0  0  0  0
    6.2507    1.3383    0.5886 C   0  0  0  0  0  0  0  0  0  0  0  0
    6.9609    0.1420    0.6547 C   0  0  0  0  0  0  0  0  0  0  0  0
    6.2814   -1.0723    0.5977 C   0  0  0  0  0  0  0  0  0  0  0  0
    4.8900   -1.0895    0.4722 C   0  0  0  0  0  0  0  0  0  0  0  0
    2.0025   -0.4216   -0.8160 C   0  0  0  0  0  0  0  0  0  0  0  0
    2.5530   -0.9148   -1.9782 C   0  0  0  0  0  0  0  0  0  0  0  0
    1.5692   -1.2227   -2.8782 O   0  0  0  0  0  0  0  0  0  0  0  0
    0.3693   -0.9216   -2.2892 C   0  0  0  0  0  0  0  0  0  0  0  0
    0.6087   -0.4878   -1.0211 C   0  0  0  0  0  0  0  0  0  0  0  0
   -0.2586   -0.0021    0.0161 C   0  0  0  0  0  0  0  0  0  0  0  0
   -3.5274    1.0827    1.4212 C   0  0  0  0  0  0  0  0  0  0  0  0
   -3.9620    1.9605    2.4237 C   0  0  0  0  0  0  0  0  0  0  0  0
   -5.2617    2.2533    2.6884 N   0  0  0  0  0  0  0  0  0  0  0  0
   -6.1964    1.6448    1.9271 C   0  0  0  0  0  0  0  0  0  0  0  0
   -5.9048    0.7517    0.9127 C   0  0  0  0  0  0  0  0  0  0  0  0
   -4.5484    0.4675    0.6564 C   0  0  0  0  0  0  0  0  0  0  0  0
   -1.7817   -2.3850   -1.8068 H   0  0  0  0  0  0  0  0  0  0  0  0
   -4.1614   -2.8142   -2.4265 H   0  0  0  0  0  0  0  0  0  0  0  0
   -5.8327   -1.3981   -1.2218 H   0  0  0  0  0  0  0  0  0  0  0  0
    2.2408    1.1523    2.0972 H   0  0  0  0  0  0  0  0  0  0  0  0
    4.3230    2.2652    0.4077 H   0  0  0  0  0  0  0  0  0  0  0  0
    6.7785    2.2875    0.6332 H   0  0  0  0  0  0  0  0  0  0  0  0
    8.0433    0.1562    0.7527 H   0  0  0  0  0  0  0  0  0  0  0  0
    6.8325   -2.0074    0.6543 H   0  0  0  0  0  0  0  0  0  0  0  0
    4.3760   -2.0484    0.4403 H   0  0  0  0  0  0  0  0  0  0  0  0
    3.5629   -1.0688   -2.3330 H   0  0  0  0  0  0  0  0  0  0  0  0
   -0.4901   -1.0401   -2.9296 H   0  0  0  0  0  0  0  0  0  0  0  0
   -3.2616    2.4837    3.0692 H   0  0  0  0  0  0  0  0  0  0  0  0
   -7.2245    1.9010    2.1671 H   0  0  0  0  0  0  0  0  0  0  0  0
   -6.7023    0.2894    0.3447 H   0  0  0  0  0  0  0  0  0  0  0  0
  1  2  1  0
  2  3  1  0
  3  4  2  0
  4  5  1  0
  5  6  1  0
  6  7  2  0
  7  8  1  0
  8  9  1  0
  9 10  1  0
 10 11  2  0
 11 12  1  0
 12 13  2  0
 13 14  1  0
 14 15  2  0
 15 16  1  0
 16 17  2  0
 11 18  1  0
 18 19  2  0
 19 20  1  0
 20 21  1  0
 21 22  2  0
 22 23  1  0
  7 24  1  0
 24 25  2  0
 25 26  1  0
 26 27  2  0
 27 28  1  0
 28 29  2  0
  5  1  2  0
 23  6  1  0
 29 24  1  0
 29  4  1  0
 23  9  2  0
 17 12  1  0
 22 18  1  0
  1 30  1  0
  2 31  1  0
  3 32  1  0
 10 33  1  0
 13 34  1  0
 14 35  1  0
 15 36  1  0
 16 37  1  0
 17 38  1  0
 19 39  1  0
 21 40  1  0
 25 41  1  0
 27 42  1  0
 28 43  1  0
M  END
