
     RDKit          3D

 47 53  0  0  0  0  0  0  0  0999 V2000
   -0.9113   -3.7583    0.7093 C   0  0  0  0  0  0  0  0  0  0  0  0
   -2.1028   -4.4301    0.8766 N   0  0  0  0  0  0  0  0  0  0  0  0
   -3.1642   -3.5507    0.7609 C   0  0  0  0  0  0  0  0  0  0  0  0
   -2.6541   -2.2909    0.5151 C   0  0  0  0  0  0  0  0  0  0  0  0
   -1.2670   -2.4606    0.4908 C   0  0  0  0  0  0  0  0  0  0  0  0
   -0.4728   -1.3075    0.2529 C   0  0  0  0  0  0  0  0  0  0  0  0
    0.9252   -1.1956    0.1777 C   0  0  0  0  0  0  0  0  0  0  0  0
    2.0456   -2.0366    0.2841 C   0  0  0  0  0  0  0  0  0  0  0  0
    3.3388   -1.4994    0.1369 C   0  0  0  0  0  0  0  0  0  0  0  0
    3.5685   -0.1353   -0.1165 C   0  0  0  0  0  0  0  0  0  0  0  0
    2.4324    0.6969   -0.2207 C   0  0  0  0  0  0  0  0  0  0  0  0
    1.1467    0.1519   -0.0723 C   0  0  0  0  0  0  0  0  0  0  0  0
   -0.0838    0.7762   -0.1355 N   0  0  0  0  0  0  0  0  0  0  0  0
   -1.1403   -0.0967    0.0623 C   0  0  0  0  0  0  0  0  0  0  0  0
   -2.5989    0.0883    0.0867 C   0  0  0  0  0  0  0  0  0  0  0  0
   -3.3840   -1.0950    0.3297 C   0  0  0  0  0  0  0  0  0  0  0  0
   -4.7872   -1.0548    0.3779 C   0  0  0  0  0  0  0  0  0  0  0  0
   -5.4516    0.1465    0.1889 C   0  0  0  0  0  0  0  0  0  0  0  0
   -4.7506    1.3303   -0.0509 C   0  0  0  0  0  0  0  0  0  0  0  0
   -5.5022    2.5045   -0.2316 C   0  0  0  0  0  0  0  0  0  0  0  0
   -4.8883    3.7260   -0.4748 C   0  0  0  0  0  0  0  0  0  0  0  0
   -3.5093    3.7828   -0.5396 C   0  0  0  0  0  0  0  0  0  0  0  0
   -2.7506    2.6183   -0.3609 C   0  0  0  0  0  0  0  0  0  0  0  0
   -3.3238    1.3426   -0.1095 C   0  0  0  0  0  0  0  0  0  0  0  0
    4.9342    0.4421   -0.2738 C   0  0  0  0  0  0  0  0  0  0  0  0
    6.1135   -0.3015   -0.1870 C   0  0  0  0  0  0  0  0  0  0  0  0
    7.3476    0.3311   -0.3491 C   0  0  0  0  0  0  0  0  0  0  0  0
    7.3889    1.6943   -0.5950 C   0  0  0  0  0  0  0  0  0  0  0  0
    6.1878    2.3707   -0.6688 C   0  0  0  0  0  0  0  0  0  0  0  0
    4.9814    1.7811   -0.5156 N   0  0  0  0  0  0  0  0  0  0  0  0
    0.0311   -4.2805    0.7656 H   0  0  0  0  0  0  0  0  0  0  0  0
   -2.1901   -5.4215    1.0577 H   0  0  0  0  0  0  0  0  0  0  0  0
   -4.1744   -3.9201    0.8670 H   0  0  0  0  0  0  0  0  0  0  0  0
    1.9317   -3.0969    0.4785 H   0  0  0  0  0  0  0  0  0  0  0  0
    4.1640   -2.1994    0.2297 H   0  0  0  0  0  0  0  0  0  0  0  0
    2.5484    1.7606   -0.4157 H   0  0  0  0  0  0  0  0  0  0  0  0
   -0.1587    1.7609   -0.3088 H   0  0  0  0  0  0  0  0  0  0  0  0
   -5.3709   -1.9512    0.5615 H   0  0  0  0  0  0  0  0  0  0  0  0
   -6.5391    0.1451    0.2321 H   0  0  0  0  0  0  0  0  0  0  0  0
   -6.5894    2.4760   -0.1836 H   0  0  0  0  0  0  0  0  0  0  0  0
   -5.4850    4.6230   -0.6120 H   0  0  0  0  0  0  0  0  0  0  0  0
   -3.0116    4.7305   -0.7292 H   0  0  0  0  0  0  0  0  0  0  0  0
   -1.6852    2.7583   -0.4283 H   0  0  0  0  0  0  0  0  0  0  0  0
    6.1059   -1.3674    0.0043 H   0  0  0  0  0  0  0  0  0  0  0  0
    8.2677   -0.2427   -0.2825 H   0  0  0  0  0  0  0  0  0  0  0  0
    8.3301    2.2154   -0.7254 H   0  0  0  0  0  0  0  0  0  0  0  0
    6.1575    3.4395   -0.8591 H   0  0  0  0  0  0  0  0  0  0  0  0
  1  2  1  0
  2  3  1  0
  3  4  2  0
  4  5  1  0
  5  6  1  0
  6  7  1  0
  7  8  2  0
  8  9  1  0
  9 10  2  0
 10 11  1  0
 11 12  2  0
 12 13  1  0
 13 14  1  0
 14 15  1  0
 15 16  2  0
 16 17  1  0
 17 18  2  0
 18 19  1  0
 19 20  2  0
 20 21  1  0
 21 22  2  0
 22 23  1  0
 23 24  2  0
 10 25  1  0
 25 26  2  0
 26 27  1  0
 27 28  2  0
 28 29  1  0
 29 30  2  0
  5  1  2  0
 14  6  2  0
 24 15  1  0
 30 25  1  0
 16  4  1  0
 24 19  1  0
 12  7  1  0
  1 31  1  0
  2 32  1  0
  3 33  1  0
  8 34  1  0
  9 35  1  0
 11 36  1  0
 13 37  1  0
 17 38  1  0
 18 39  1  0
 20 40  1  0
 21 41  1  0
 22 42  1  0
 23 43  1  0
 26 44  1  0
 27 45  1  0
 28 46  1  0
 29 47  1  0
M  END
