
     RDKit          3D

 50 57  0  0  0  0  0  0  0  0999 V2000
   -0.1775   -3.9180    1.0172 C   0  0  0  0  0  0  0  0  0  0  0  0
   -1.4529   -4.3770    1.2389 N   0  0  0  0  0  0  0  0  0  0  0  0
   -2.3687   -3.3568    1.0221 C   0  0  0  0  0  0  0  0  0  0  0  0
   -1.7019   -2.2289    0.5777 C   0  0  0  0  0  0  0  0  0  0  0  0
   -0.3538   -2.6178    0.6567 C   0  0  0  0  0  0  0  0  0  0  0  0
    0.6243   -1.6539    0.3920 C   0  0  0  0  0  0  0  0  0  0  0  0
    2.0113   -1.7414    0.3649 C   0  0  0  0  0  0  0  0  0  0  0  0
    2.4162   -0.4520    0.0763 C   0  0  0  0  0  0  0  0  0  0  0  0
    1.3197    0.3636   -0.0607 O   0  0  0  0  0  0  0  0  0  0  0  0
    0.1760   -0.3775    0.1505 C   0  0  0  0  0  0  0  0  0  0  0  0
   -1.2027    0.0704    0.1148 C   0  0  0  0  0  0  0  0  0  0  0  0
   -1.5597    1.4607   -0.0340 C   0  0  0  0  0  0  0  0  0  0  0  0
   -0.6093    2.5240   -0.0618 C   0  0  0  0  0  0  0  0  0  0  0  0
   -0.9538    3.8691   -0.1855 C   0  0  0  0  0  0  0  0  0  0  0  0
   -2.2806    4.2136   -0.2802 C   0  0  0  0  0  0  0  0  0  0  0  0
   -3.2440    3.2076   -0.2477 C   0  0  0  0  0  0  0  0  0  0  0  0
   -2.9347    1.8211   -0.1252 C   0  0  0  0  0  0  0  0  0  0  0  0
   -3.9608    0.8104   -0.1153 C   0  0  0  0  0  0  0  0  0  0  0  0
   -5.3444    1.1254   -0.2578 C   0  0  0  0  0  0  0  0  0  0  0  0
   -6.3504    0.1631   -0.3250 C   0  0  0  0  0  0  0  0  0  0  0  0
   -6.0052   -1.1668   -0.2779 C   0  0  0  0  0  0  0  0  0  0  0  0
   -4.6644   -1.5122   -0.1202 C   0  0  0  0  0  0  0  0  0  0  0  0
   -3.6173   -0.5617    0.0215 C   0  0  0  0  0  0  0  0  0  0  0  0
   -2.2385   -0.9316    0.2361 C   0  0  0  0  0  0  0  0  0  0  0  0
    3.6890    0.2028   -0.1188 C   0  0  0  0  0  0  0  0  0  0  0  0
    3.8865    1.3405   -0.9471 C   0  0  0  0  0  0  0  0  0  0  0  0
    5.1579    1.9859   -1.1579 C   0  0  0  0  0  0  0  0  0  0  0  0
    6.3690    1.5691   -0.5612 C   0  0  0  0  0  0  0  0  0  0  0  0
    6.1502    0.4651    0.2509 C   0  0  0  0  0  0  0  0  0  0  0  0
    7.0857   -0.1953    1.0001 C   0  0  0  0  0  0  0  0  0  0  0  0
    6.4821   -1.2140    1.6838 O   0  0  0  0  0  0  0  0  0  0  0  0
    5.1509   -1.1959    1.3634 C   0  0  0  0  0  0  0  0  0  0  0  0
    4.8965   -0.1877    0.4679 C   0  0  0  0  0  0  0  0  0  0  0  0
    0.6907   -4.5436    1.1699 H   0  0  0  0  0  0  0  0  0  0  0  0
   -1.6906   -5.3056    1.5639 H   0  0  0  0  0  0  0  0  0  0  0  0
   -3.4032   -3.5590    1.2530 H   0  0  0  0  0  0  0  0  0  0  0  0
    2.6382   -2.6072    0.5112 H   0  0  0  0  0  0  0  0  0  0  0  0
    0.4532    2.3336    0.0379 H   0  0  0  0  0  0  0  0  0  0  0  0
   -0.1806    4.6318   -0.1973 H   0  0  0  0  0  0  0  0  0  0  0  0
   -2.5764    5.2544   -0.3741 H   0  0  0  0  0  0  0  0  0  0  0  0
   -4.2708    3.5516   -0.3224 H   0  0  0  0  0  0  0  0  0  0  0  0
   -5.6830    2.1536   -0.3386 H   0  0  0  0  0  0  0  0  0  0  0  0
   -7.3878    0.4616   -0.4447 H   0  0  0  0  0  0  0  0  0  0  0  0
   -6.7625   -1.9390   -0.3762 H   0  0  0  0  0  0  0  0  0  0  0  0
   -4.4461   -2.5718   -0.1709 H   0  0  0  0  0  0  0  0  0  0  0  0
    3.0232    1.7559   -1.4708 H   0  0  0  0  0  0  0  0  0  0  0  0
    5.1809    2.8512   -1.8221 H   0  0  0  0  0  0  0  0  0  0  0  0
    7.3166    2.0623   -0.7233 H   0  0  0  0  0  0  0  0  0  0  0  0
    8.1477   -0.0863    1.1674 H   0  0  0  0  0  0  0  0  0  0  0  0
    4.5557   -1.9469    1.8616 H   0  0  0  0  0  0  0  0  0  0  0  0
  1  2  1  0
  2  3  1  0
  3  4  2  0
  4  5  1  0
  5  6  1  0
  6  7  1  0
  7  8  2  0
  8  9  1  0
  9 10  1  0
 10 11  1  0
 11 12  2  0
 12 13  1  0
 13 14  2  0
 14 15  1  0
 15 16  2  0
 16 17  1  0
 17 18  2  0
 18 19  1  0
 19 20  2  0
 20 21  1  0
 21 22  2  0
 22 23  1  0
 23 24  2  0
  8 25  1  0
 25 26  2  0
 26 27  1  0
 27 28  2  0
 28 29  1  0
 29 30  2  0
 30 31  1  0
 31 32  1  0
 32 33  2  0
  5  1  2  0
 10  6  2  0
 24 11  1  0
 33 25  1  0
 24  4  1  0
 33 29  1  0
 17 12  1  0
 23 18  1  0
  1 34  1  0
  2 35  1  0
  3 36  1  0
  7 37  1  0
 13 38  1  0
 14 39  1  0
 15 40  1  0
 16 41  1  0
 19 42  1  0
 20 43  1  0
 21 44  1  0
 22 45  1  0
 26 46  1  0
 27 47  1  0
 28 48  1  0
 30 49  1  0
 32 50  1  0
M  END
