
     RDKit          3D

 41 47  0  0  0  0  0  0  0  0999 V2000
    0.1339   -3.8424   -1.2652 C   0  0  0  0  0  0  0  0  0  0  0  0
    1.4080   -4.3276   -1.4877 N   0  0  0  0  0  0  0  0  0  0  0  0
    2.3552   -3.3572   -1.1922 C   0  0  0  0  0  0  0  0  0  0  0  0
    1.6897   -2.2261   -0.7720 C   0  0  0  0  0  0  0  0  0  0  0  0
    0.3262   -2.5670   -0.8318 C   0  0  0  0  0  0  0  0  0  0  0  0
   -0.6102   -1.5794   -0.4497 C   0  0  0  0  0  0  0  0  0  0  0  0
   -1.9979   -1.5777   -0.3897 C   0  0  0  0  0  0  0  0  0  0  0  0
   -2.3203   -0.3033    0.0654 C   0  0  0  0  0  0  0  0  0  0  0  0
   -1.1722    0.4261    0.2688 O   0  0  0  0  0  0  0  0  0  0  0  0
   -0.1006   -0.3650   -0.0510 C   0  0  0  0  0  0  0  0  0  0  0  0
    1.2823   -0.0268    0.0070 C   0  0  0  0  0  0  0  0  0  0  0  0
    1.6894    1.2504    0.4319 C   0  0  0  0  0  0  0  0  0  0  0  0
    3.0331    1.5967    0.4943 C   0  0  0  0  0  0  0  0  0  0  0  0
    3.3710    2.8310    0.9072 N   0  0  0  0  0  0  0  0  0  0  0  0
    4.6826    3.1494    0.9614 C   0  0  0  0  0  0  0  0  0  0  0  0
    5.7017    2.2828    0.6177 C   0  0  0  0  0  0  0  0  0  0  0  0
    5.3552    1.0071    0.1907 C   0  0  0  0  0  0  0  0  0  0  0  0
    4.0061    0.6366    0.1202 C   0  0  0  0  0  0  0  0  0  0  0  0
    3.6260   -0.6475   -0.3083 C   0  0  0  0  0  0  0  0  0  0  0  0
    2.2617   -0.9908   -0.3688 C   0  0  0  0  0  0  0  0  0  0  0  0
   -3.5864    0.3624    0.3500 C   0  0  0  0  0  0  0  0  0  0  0  0
   -4.8297   -0.2974    0.1747 C   0  0  0  0  0  0  0  0  0  0  0  0
   -6.0874    0.2970    0.4343 C   0  0  0  0  0  0  0  0  0  0  0  0
   -6.2266    1.6126    0.8959 C   0  0  0  0  0  0  0  0  0  0  0  0
   -5.0271    2.3358    1.0951 C   0  0  0  0  0  0  0  0  0  0  0  0
   -4.9586    3.6031    1.5311 N   0  0  0  0  0  0  0  0  0  0  0  0
   -3.3475    3.9885    1.5957 S   0  0  0  0  0  0  0  0  0  0  0  0
   -2.6702    2.5730    1.0765 N   0  0  0  0  0  0  0  0  0  0  0  0
   -3.6705    1.7100    0.8204 C   0  0  0  0  0  0  0  0  0  0  0  0
   -0.7426   -4.4506   -1.4383 H   0  0  0  0  0  0  0  0  0  0  0  0
    1.6229   -5.2592   -1.8195 H   0  0  0  0  0  0  0  0  0  0  0  0
    3.4063   -3.5793   -1.3141 H   0  0  0  0  0  0  0  0  0  0  0  0
   -2.6835   -2.3737   -0.6361 H   0  0  0  0  0  0  0  0  0  0  0  0
    0.9453    1.9910    0.7201 H   0  0  0  0  0  0  0  0  0  0  0  0
    4.8966    4.1586    1.3017 H   0  0  0  0  0  0  0  0  0  0  0  0
    6.7384    2.5922    0.6805 H   0  0  0  0  0  0  0  0  0  0  0  0
    6.1392    0.3068   -0.0853 H   0  0  0  0  0  0  0  0  0  0  0  0
    4.3794   -1.3761   -0.5928 H   0  0  0  0  0  0  0  0  0  0  0  0
   -4.8365   -1.3280   -0.1819 H   0  0  0  0  0  0  0  0  0  0  0  0
   -6.9881   -0.2948    0.2678 H   0  0  0  0  0  0  0  0  0  0  0  0
   -7.1942    2.0587    1.0918 H   0  0  0  0  0  0  0  0  0  0  0  0
  1  2  1  0
  2  3  1  0
  3  4  2  0
  4  5  1  0
  5  6  1  0
  6  7  1  0
  7  8  2  0
  8  9  1  0
  9 10  1  0
 10 11  1  0
 11 12  2  0
 12 13  1  0
 13 14  2  0
 14 15  1  0
 15 16  2  0
 16 17  1  0
 17 18  2  0
 18 19  1  0
 19 20  2  0
  8 21  1  0
 21 22  2  0
 22 23  1  0
 23 24  2  0
 24 25  1  0
 25 26  2  0
 26 27  1  0
 27 28  1  0
 28 29  2  0
  5  1  2  0
 10  6  2  0
 20 11  1  0
 29 21  1  0
 20  4  1  0
 29 25  1  0
 18 13  1  0
  1 30  1  0
  2 31  1  0
  3 32  1  0
  7 33  1  0
 12 34  1  0
 15 35  1  0
 16 36  1  0
 17 37  1  0
 19 38  1  0
 22 39  1  0
 23 40  1  0
 24 41  1  0
M  END
