
     RDKit          3D

 42 48  0  0  0  0  0  0  0  0999 V2000
   -0.8304    1.2401   -3.1942 C   0  0  0  0  0  0  0  0  0  0  0  0
   -2.1494    1.4655   -3.5315 N   0  0  0  0  0  0  0  0  0  0  0  0
   -2.9815    1.1090   -2.4824 C   0  0  0  0  0  0  0  0  0  0  0  0
   -2.2030    0.6442   -1.4441 C   0  0  0  0  0  0  0  0  0  0  0  0
   -0.8849    0.7438   -1.9284 C   0  0  0  0  0  0  0  0  0  0  0  0
    0.1594    0.3341   -1.0736 C   0  0  0  0  0  0  0  0  0  0  0  0
    1.5386    0.2971   -1.2347 C   0  0  0  0  0  0  0  0  0  0  0  0
    2.0065   -0.2071   -0.0300 C   0  0  0  0  0  0  0  0  0  0  0  0
    0.9519   -0.4764    0.8158 O   0  0  0  0  0  0  0  0  0  0  0  0
   -0.2101   -0.1331    0.1663 C   0  0  0  0  0  0  0  0  0  0  0  0
   -1.5433   -0.2307    0.6442 C   0  0  0  0  0  0  0  0  0  0  0  0
   -1.6779   -0.7211    1.8963 N   0  0  0  0  0  0  0  0  0  0  0  0
   -2.9370   -0.8188    2.3663 C   0  0  0  0  0  0  0  0  0  0  0  0
   -4.0852   -0.4560    1.6590 C   0  0  0  0  0  0  0  0  0  0  0  0
   -5.3657   -0.5883    2.2193 C   0  0  0  0  0  0  0  0  0  0  0  0
   -6.4819   -0.2174    1.4849 C   0  0  0  0  0  0  0  0  0  0  0  0
   -6.2765    0.2734    0.2134 C   0  0  0  0  0  0  0  0  0  0  0  0
   -5.0564    0.4116   -0.3511 N   0  0  0  0  0  0  0  0  0  0  0  0
   -3.9527    0.0543    0.3525 C   0  0  0  0  0  0  0  0  0  0  0  0
   -2.6409    0.1701   -0.1705 C   0  0  0  0  0  0  0  0  0  0  0  0
    3.3105   -0.5208    0.5109 C   0  0  0  0  0  0  0  0  0  0  0  0
    3.5439   -1.4885    1.5256 C   0  0  0  0  0  0  0  0  0  0  0  0
    4.8421   -1.8207    2.0563 C   0  0  0  0  0  0  0  0  0  0  0  0
    6.0491   -1.2195    1.6358 C   0  0  0  0  0  0  0  0  0  0  0  0
    5.7971   -0.2699    0.6557 C   0  0  0  0  0  0  0  0  0  0  0  0
    6.7219    0.5234    0.0328 C   0  0  0  0  0  0  0  0  0  0  0  0
    6.0876    1.3494   -0.8528 O   0  0  0  0  0  0  0  0  0  0  0  0
    4.7476    1.0751   -0.7874 C   0  0  0  0  0  0  0  0  0  0  0  0
    4.5159    0.0693    0.1171 C   0  0  0  0  0  0  0  0  0  0  0  0
   -0.0243    1.4552   -3.8815 H   0  0  0  0  0  0  0  0  0  0  0  0
   -2.4688    1.8375   -4.4167 H   0  0  0  0  0  0  0  0  0  0  0  0
   -4.0528    1.2240   -2.5848 H   0  0  0  0  0  0  0  0  0  0  0  0
    2.1238    0.5745   -2.0975 H   0  0  0  0  0  0  0  0  0  0  0  0
   -3.0028   -1.2161    3.3767 H   0  0  0  0  0  0  0  0  0  0  0  0
   -5.4951   -0.9792    3.2257 H   0  0  0  0  0  0  0  0  0  0  0  0
   -7.4819   -0.3088    1.8926 H   0  0  0  0  0  0  0  0  0  0  0  0
   -7.1106    0.5806   -0.4111 H   0  0  0  0  0  0  0  0  0  0  0  0
    2.6855   -2.0262    1.9345 H   0  0  0  0  0  0  0  0  0  0  0  0
    4.8885   -2.5850    2.8334 H   0  0  0  0  0  0  0  0  0  0  0  0
    7.0172   -1.4728    2.0432 H   0  0  0  0  0  0  0  0  0  0  0  0
    7.7946    0.6393    0.0928 H   0  0  0  0  0  0  0  0  0  0  0  0
    4.1310    1.6850   -1.4307 H   0  0  0  0  0  0  0  0  0  0  0  0
  1  2  1  0
  2  3  1  0
  3  4  2  0
  4  5  1  0
  5  6  1  0
  6  7  1  0
  7  8  2  0
  8  9  1  0
  9 10  1  0
 10 11  1  0
 11 12  2  0
 12 13  1  0
 13 14  2  0
 14 15  1  0
 15 16  2  0
 16 17  1  0
 17 18  2  0
 18 19  1  0
 19 20  2  0
  8 21  1  0
 21 22  2  0
 22 23  1  0
 23 24  2  0
 24 25  1  0
 25 26  2  0
 26 27  1  0
 27 28  1  0
 28 29  2  0
  5  1  2  0
 10  6  2  0
 20 11  1  0
 29 21  1  0
 20  4  1  0
 29 25  1  0
 19 14  1  0
  1 30  1  0
  2 31  1  0
  3 32  1  0
  7 33  1  0
 13 34  1  0
 15 35  1  0
 16 36  1  0
 17 37  1  0
 22 38  1  0
 23 39  1  0
 24 40  1  0
 26 41  1  0
 28 42  1  0
M  END
