
     RDKit          3D

 45 51  0  0  0  0  0  0  0  0999 V2000
   -3.1922   -2.6281   -1.8816 C   0  0  0  0  0  0  0  0  0  0  0  0
   -2.0314   -3.2635   -2.2261 N   0  0  0  0  0  0  0  0  0  0  0  0
   -0.9567   -2.5786   -1.7062 C   0  0  0  0  0  0  0  0  0  0  0  0
   -1.4219   -1.4812   -1.0130 C   0  0  0  0  0  0  0  0  0  0  0  0
   -2.8533   -1.5229   -1.1318 C   0  0  0  0  0  0  0  0  0  0  0  0
   -3.7728   -0.6079   -0.5877 C   0  0  0  0  0  0  0  0  0  0  0  0
   -5.2180   -0.7470   -0.7715 C   0  0  0  0  0  0  0  0  0  0  0  0
   -6.1672    0.1371   -0.2497 C   0  0  0  0  0  0  0  0  0  0  0  0
   -5.5231    1.1356    0.4493 C   0  0  0  0  0  0  0  0  0  0  0  0
   -6.1699    2.1608    1.0834 C   0  0  0  0  0  0  0  0  0  0  0  0
   -5.2528    2.9695    1.6747 O   0  0  0  0  0  0  0  0  0  0  0  0
   -4.0161    2.4483    1.4103 C   0  0  0  0  0  0  0  0  0  0  0  0
   -4.1064    1.3030    0.6500 C   0  0  0  0  0  0  0  0  0  0  0  0
   -3.0640    0.4365    0.1457 C   0  0  0  0  0  0  0  0  0  0  0  0
   -1.5605    0.4862    0.2744 C   0  0  0  0  0  0  0  0  0  0  0  0
   -0.9196    1.5108    0.9904 C   0  0  0  0  0  0  0  0  0  0  0  0
    0.4654    1.6182    1.1496 C   0  0  0  0  0  0  0  0  0  0  0  0
    1.3317    0.6887    0.5925 C   0  0  0  0  0  0  0  0  0  0  0  0
    2.7185    0.8451    0.7841 C   0  0  0  0  0  0  0  0  0  0  0  0
    3.6173   -0.0661    0.2411 C   0  0  0  0  0  0  0  0  0  0  0  0
    3.1455   -1.1085   -0.4758 N   0  0  0  0  0  0  0  0  0  0  0  0
    1.8020   -1.2351   -0.6450 C   0  0  0  0  0  0  0  0  0  0  0  0
    0.8040   -0.3816   -0.1464 C   0  0  0  0  0  0  0  0  0  0  0  0
   -0.6582   -0.4895   -0.3108 C   0  0  0  0  0  0  0  0  0  0  0  0
    5.0992    0.0247    0.3956 C   0  0  0  0  0  0  0  0  0  0  0  0
    5.7446    1.0416    1.1069 C   0  0  0  0  0  0  0  0  0  0  0  0
    7.1381    1.0498    1.2013 C   0  0  0  0  0  0  0  0  0  0  0  0
    7.8700    0.0460    0.5866 C   0  0  0  0  0  0  0  0  0  0  0  0
    7.1747   -0.9288   -0.1002 C   0  0  0  0  0  0  0  0  0  0  0  0
    5.8291   -0.9571   -0.2048 N   0  0  0  0  0  0  0  0  0  0  0  0
   -4.1401   -3.0318   -2.2080 H   0  0  0  0  0  0  0  0  0  0  0  0
   -1.9683   -4.1091   -2.7791 H   0  0  0  0  0  0  0  0  0  0  0  0
    0.0174   -2.9846   -1.9115 H   0  0  0  0  0  0  0  0  0  0  0  0
   -5.5987   -1.5875   -1.3496 H   0  0  0  0  0  0  0  0  0  0  0  0
   -7.2328    0.0298   -0.3884 H   0  0  0  0  0  0  0  0  0  0  0  0
   -7.2034    2.4513    1.2088 H   0  0  0  0  0  0  0  0  0  0  0  0
   -3.2271    3.0354    1.8474 H   0  0  0  0  0  0  0  0  0  0  0  0
   -1.4823    2.2946    1.4709 H   0  0  0  0  0  0  0  0  0  0  0  0
    0.8491    2.4580    1.7274 H   0  0  0  0  0  0  0  0  0  0  0  0
    3.0728    1.6900    1.3633 H   0  0  0  0  0  0  0  0  0  0  0  0
    1.5743   -2.1076   -1.2344 H   0  0  0  0  0  0  0  0  0  0  0  0
    5.1954    1.8368    1.5958 H   0  0  0  0  0  0  0  0  0  0  0  0
    7.6443    1.8373    1.7526 H   0  0  0  0  0  0  0  0  0  0  0  0
    8.9521    0.0226    0.6403 H   0  0  0  0  0  0  0  0  0  0  0  0
    7.6915   -1.7412   -0.6026 H   0  0  0  0  0  0  0  0  0  0  0  0
  1  2  1  0
  2  3  1  0
  3  4  2  0
  4  5  1  0
  5  6  1  0
  6  7  1  0
  7  8  2  0
  8  9  1  0
  9 10  2  0
 10 11  1  0
 11 12  1  0
 12 13  2  0
 13 14  1  0
 14 15  1  0
 15 16  2  0
 16 17  1  0
 17 18  2  0
 18 19  1  0
 19 20  2  0
 20 21  1  0
 21 22  2  0
 22 23  1  0
 23 24  2  0
 20 25  1  0
 25 26  2  0
 26 27  1  0
 27 28  2  0
 28 29  1  0
 29 30  2  0
  5  1  2  0
 14  6  2  0
 24 15  1  0
 30 25  1  0
 24  4  1  0
 13  9  1  0
 23 18  1  0
  1 31  1  0
  2 32  1  0
  3 33  1  0
  7 34  1  0
  8 35  1  0
 10 36  1  0
 12 37  1  0
 16 38  1  0
 17 39  1  0
 19 40  1  0
 22 41  1  0
 26 42  1  0
 27 43  1  0
 28 44  1  0
 29 45  1  0
M  END
