
     RDKit          3D

 48 55  0  0  0  0  0  0  0  0999 V2000
   -4.7093    3.9169    0.2074 C   0  0  0  0  0  0  0  0  0  0  0  0
   -3.4078    4.2435    0.4833 N   0  0  0  0  0  0  0  0  0  0  0  0
   -2.6077    3.1204    0.3976 C   0  0  0  0  0  0  0  0  0  0  0  0
   -3.3897    2.0451    0.0345 C   0  0  0  0  0  0  0  0  0  0  0  0
   -4.7277    2.5725   -0.0607 C   0  0  0  0  0  0  0  0  0  0  0  0
   -5.8863    1.8822   -0.3594 C   0  0  0  0  0  0  0  0  0  0  0  0
   -5.5988    0.5268   -0.5534 C   0  0  0  0  0  0  0  0  0  0  0  0
   -4.2598   -0.0412   -0.4639 C   0  0  0  0  0  0  0  0  0  0  0  0
   -4.0155   -1.4180   -0.6510 C   0  0  0  0  0  0  0  0  0  0  0  0
   -4.9500   -2.3923   -0.9254 C   0  0  0  0  0  0  0  0  0  0  0  0
   -4.2852   -3.5920   -1.0249 N   0  0  0  0  0  0  0  0  0  0  0  0
   -2.9396   -3.3998   -0.8190 C   0  0  0  0  0  0  0  0  0  0  0  0
   -2.7439   -2.0571   -0.5836 C   0  0  0  0  0  0  0  0  0  0  0  0
   -1.5113   -1.4181   -0.3305 C   0  0  0  0  0  0  0  0  0  0  0  0
   -0.2696   -2.1174   -0.2879 C   0  0  0  0  0  0  0  0  0  0  0  0
    0.8950   -1.3816   -0.0544 C   0  0  0  0  0  0  0  0  0  0  0  0
    2.2796   -1.6696    0.0613 C   0  0  0  0  0  0  0  0  0  0  0  0
    2.9218   -0.4675    0.2861 C   0  0  0  0  0  0  0  0  0  0  0  0
    1.9989    0.5409    0.3331 O   0  0  0  0  0  0  0  0  0  0  0  0
    0.7751   -0.0166    0.1203 C   0  0  0  0  0  0  0  0  0  0  0  0
   -0.4350    0.6851    0.0835 C   0  0  0  0  0  0  0  0  0  0  0  0
   -1.6537    0.0015   -0.1334 C   0  0  0  0  0  0  0  0  0  0  0  0
   -3.0046    0.6708   -0.1765 C   0  0  0  0  0  0  0  0  0  0  0  0
    4.2929   -0.0603    0.5004 C   0  0  0  0  0  0  0  0  0  0  0  0
    4.6623    0.9562    1.4189 C   0  0  0  0  0  0  0  0  0  0  0  0
    6.0120    1.3583    1.6775 C   0  0  0  0  0  0  0  0  0  0  0  0
    7.1351    0.7908    1.0423 C   0  0  0  0  0  0  0  0  0  0  0  0
    6.7725   -0.1974    0.1269 C   0  0  0  0  0  0  0  0  0  0  0  0
    7.7046   -0.8724   -0.6218 C   0  0  0  0  0  0  0  0  0  0  0  0
    6.9554   -1.9986   -1.6786 S   0  0  0  0  0  0  0  0  0  0  0  0
    5.3793   -1.5740   -1.1336 C   0  0  0  0  0  0  0  0  0  0  0  0
    5.4134   -0.6163   -0.1454 C   0  0  0  0  0  0  0  0  0  0  0  0
   -5.4901    4.6647    0.2374 H   0  0  0  0  0  0  0  0  0  0  0  0
   -3.0792    5.1679    0.7306 H   0  0  0  0  0  0  0  0  0  0  0  0
   -1.5632    3.2433    0.6246 H   0  0  0  0  0  0  0  0  0  0  0  0
   -6.8798    2.3003   -0.4234 H   0  0  0  0  0  0  0  0  0  0  0  0
   -6.4370   -0.1286   -0.7825 H   0  0  0  0  0  0  0  0  0  0  0  0
   -6.0219   -2.3603   -1.0598 H   0  0  0  0  0  0  0  0  0  0  0  0
   -4.7220   -4.4834   -1.2212 H   0  0  0  0  0  0  0  0  0  0  0  0
   -2.2620   -4.2409   -0.8631 H   0  0  0  0  0  0  0  0  0  0  0  0
   -0.2164   -3.1895   -0.4370 H   0  0  0  0  0  0  0  0  0  0  0  0
    2.7471   -2.6416    0.0004 H   0  0  0  0  0  0  0  0  0  0  0  0
   -0.3843    1.7520    0.2078 H   0  0  0  0  0  0  0  0  0  0  0  0
    3.8719    1.4631    1.9756 H   0  0  0  0  0  0  0  0  0  0  0  0
    6.1761    2.1493    2.4101 H   0  0  0  0  0  0  0  0  0  0  0  0
    8.1478    1.1099    1.2503 H   0  0  0  0  0  0  0  0  0  0  0  0
    8.7809   -0.7683   -0.6204 H   0  0  0  0  0  0  0  0  0  0  0  0
    4.5297   -2.0587   -1.5911 H   0  0  0  0  0  0  0  0  0  0  0  0
  1  2  1  0
  2  3  1  0
  3  4  2  0
  4  5  1  0
  5  6  1  0
  6  7  2  0
  7  8  1  0
  8  9  1  0
  9 10  2  0
 10 11  1  0
 11 12  1  0
 12 13  2  0
 13 14  1  0
 14 15  2  0
 15 16  1  0
 16 17  1  0
 17 18  2  0
 18 19  1  0
 19 20  1  0
 20 21  1  0
 21 22  2  0
 22 23  1  0
 18 24  1  0
 24 25  2  0
 25 26  1  0
 26 27  2  0
 27 28  1  0
 28 29  2  0
 29 30  1  0
 30 31  1  0
 31 32  2  0
  5  1  2  0
 23  8  2  0
 32 24  1  0
 23  4  1  0
 32 28  1  0
 13  9  1  0
 22 14  1  0
 20 16  2  0
  1 33  1  0
  2 34  1  0
  3 35  1  0
  6 36  1  0
  7 37  1  0
 10 38  1  0
 11 39  1  0
 12 40  1  0
 15 41  1  0
 17 42  1  0
 21 43  1  0
 25 44  1  0
 26 45  1  0
 27 46  1  0
 29 47  1  0
 31 48  1  0
M  END
