
     RDKit          3D

 46 53  0  0  0  0  0  0  0  0999 V2000
   -6.0129    2.3420   -0.5656 C   0  0  0  0  0  0  0  0  0  0  0  0
   -5.0341    3.3020   -0.6241 N   0  0  0  0  0  0  0  0  0  0  0  0
   -3.7870    2.7146   -0.5323 C   0  0  0  0  0  0  0  0  0  0  0  0
   -3.9525    1.3478   -0.4724 C   0  0  0  0  0  0  0  0  0  0  0  0
   -5.3746    1.1348   -0.4464 C   0  0  0  0  0  0  0  0  0  0  0  0
   -6.0393   -0.0687   -0.2977 C   0  0  0  0  0  0  0  0  0  0  0  0
   -5.1164   -1.1098   -0.1306 C   0  0  0  0  0  0  0  0  0  0  0  0
   -3.6704   -0.9197   -0.1446 C   0  0  0  0  0  0  0  0  0  0  0  0
   -2.7451   -1.9648    0.0167 C   0  0  0  0  0  0  0  0  0  0  0  0
   -3.0341   -3.3019    0.1382 C   0  0  0  0  0  0  0  0  0  0  0  0
   -1.8807   -4.0242    0.1564 O   0  0  0  0  0  0  0  0  0  0  0  0
   -0.8499   -3.1379    0.0554 C   0  0  0  0  0  0  0  0  0  0  0  0
   -1.3202   -1.8463    0.0519 C   0  0  0  0  0  0  0  0  0  0  0  0
   -0.5640   -0.6484   -0.0816 C   0  0  0  0  0  0  0  0  0  0  0  0
   -1.4488    0.4251   -0.4161 C   0  0  0  0  0  0  0  0  0  0  0  0
   -0.7695    1.5584   -0.8659 C   0  0  0  0  0  0  0  0  0  0  0  0
    0.5768    1.7468   -0.9469 N   0  0  0  0  0  0  0  0  0  0  0  0
    1.3963    0.8005   -0.4976 C   0  0  0  0  0  0  0  0  0  0  0  0
    2.7857    1.1036   -0.5640 C   0  0  0  0  0  0  0  0  0  0  0  0
    3.8712    0.3063   -0.0953 C   0  0  0  0  0  0  0  0  0  0  0  0
    5.2784    0.6842   -0.2026 C   0  0  0  0  0  0  0  0  0  0  0  0
    5.5419    1.9343   -0.5996 N   0  0  0  0  0  0  0  0  0  0  0  0
    6.8348    2.2327   -0.7005 C   0  0  0  0  0  0  0  0  0  0  0  0
    7.8486    1.4107   -0.4504 N   0  0  0  0  0  0  0  0  0  0  0  0
    7.4694    0.1952   -0.0699 C   0  0  0  0  0  0  0  0  0  0  0  0
    6.2148   -0.2275    0.0722 N   0  0  0  0  0  0  0  0  0  0  0  0
    3.3423   -0.8314    0.5163 C   0  0  0  0  0  0  0  0  0  0  0  0
    4.0120   -1.8011    1.2206 C   0  0  0  0  0  0  0  0  0  0  0  0
    3.1222   -2.6709    1.7756 O   0  0  0  0  0  0  0  0  0  0  0  0
    1.8728   -2.2583    1.4187 C   0  0  0  0  0  0  0  0  0  0  0  0
    1.9486   -1.1760    0.5777 C   0  0  0  0  0  0  0  0  0  0  0  0
    0.8755   -0.4217    0.0134 C   0  0  0  0  0  0  0  0  0  0  0  0
   -2.9458    0.3293   -0.3551 C   0  0  0  0  0  0  0  0  0  0  0  0
   -7.0596    2.6138   -0.5913 H   0  0  0  0  0  0  0  0  0  0  0  0
   -5.2003    4.2984   -0.6853 H   0  0  0  0  0  0  0  0  0  0  0  0
   -2.9262    3.3634   -0.4947 H   0  0  0  0  0  0  0  0  0  0  0  0
   -7.1105   -0.2063   -0.2778 H   0  0  0  0  0  0  0  0  0  0  0  0
   -5.5183   -2.1106    0.0216 H   0  0  0  0  0  0  0  0  0  0  0  0
   -3.9410   -3.8883    0.1778 H   0  0  0  0  0  0  0  0  0  0  0  0
    0.1207   -3.6019   -0.0349 H   0  0  0  0  0  0  0  0  0  0  0  0
   -1.3068    2.4053   -1.2753 H   0  0  0  0  0  0  0  0  0  0  0  0
    3.0351    2.0667   -1.0202 H   0  0  0  0  0  0  0  0  0  0  0  0
    7.0833    3.2399   -1.0172 H   0  0  0  0  0  0  0  0  0  0  0  0
    8.2560   -0.5203    0.1451 H   0  0  0  0  0  0  0  0  0  0  0  0
    5.0480   -1.9960    1.4607 H   0  0  0  0  0  0  0  0  0  0  0  0
    1.0737   -2.8237    1.8750 H   0  0  0  0  0  0  0  0  0  0  0  0
  1  2  1  0
  2  3  1  0
  3  4  2  0
  4  5  1  0
  5  6  1  0
  6  7  2  0
  7  8  1  0
  8  9  1  0
  9 10  2  0
 10 11  1  0
 11 12  1  0
 12 13  2  0
 13 14  1  0
 14 15  2  0
 15 16  1  0
 16 17  2  0
 17 18  1  0
 18 19  1  0
 19 20  2  0
 20 21  1  0
 21 22  2  0
 22 23  1  0
 23 24  2  0
 24 25  1  0
 25 26  2  0
 20 27  1  0
 27 28  2  0
 28 29  1  0
 29 30  1  0
 30 31  2  0
 31 32  1  0
 15 33  1  0
  5  1  2  0
 33  8  2  0
 33  4  1  0
 13  9  1  0
 32 14  1  0
 32 18  2  0
 26 21  1  0
 31 27  1  0
  1 34  1  0
  2 35  1  0
  3 36  1  0
  6 37  1  0
  7 38  1  0
 10 39  1  0
 12 40  1  0
 16 41  1  0
 19 42  1  0
 23 43  1  0
 25 44  1  0
 28 45  1  0
 30 46  1  0
M  END
