
     RDKit          3D

 46 53  0  0  0  0  0  0  0  0999 V2000
   -6.7585   -1.1209    1.2810 C   0  0  0  0  0  0  0  0  0  0  0  0
   -5.8909   -1.8158    2.0848 N   0  0  0  0  0  0  0  0  0  0  0  0
   -4.5849   -1.5465    1.7196 C   0  0  0  0  0  0  0  0  0  0  0  0
   -4.6017   -0.6406    0.6823 C   0  0  0  0  0  0  0  0  0  0  0  0
   -5.9887   -0.4022    0.4045 C   0  0  0  0  0  0  0  0  0  0  0  0
   -6.5058    0.4049   -0.5878 C   0  0  0  0  0  0  0  0  0  0  0  0
   -5.4583    0.9715   -1.3350 C   0  0  0  0  0  0  0  0  0  0  0  0
   -4.0497    0.7595   -1.0961 C   0  0  0  0  0  0  0  0  0  0  0  0
   -3.1560    1.3955   -1.9473 C   0  0  0  0  0  0  0  0  0  0  0  0
   -1.7721    1.2486   -1.8078 C   0  0  0  0  0  0  0  0  0  0  0  0
   -1.1765    0.4676   -0.7982 C   0  0  0  0  0  0  0  0  0  0  0  0
   -2.0538   -0.1629    0.1154 C   0  0  0  0  0  0  0  0  0  0  0  0
   -1.4215   -0.8464    1.1569 C   0  0  0  0  0  0  0  0  0  0  0  0
   -0.0869   -0.9868    1.3554 N   0  0  0  0  0  0  0  0  0  0  0  0
    0.7503   -0.4369    0.4861 C   0  0  0  0  0  0  0  0  0  0  0  0
    2.1265   -0.6486    0.7763 C   0  0  0  0  0  0  0  0  0  0  0  0
    3.2320   -0.1844    0.0229 C   0  0  0  0  0  0  0  0  0  0  0  0
    4.6174   -0.4428    0.3525 C   0  0  0  0  0  0  0  0  0  0  0  0
    5.1615   -1.7274    0.4993 C   0  0  0  0  0  0  0  0  0  0  0  0
    6.4527   -2.0711    0.8213 N   0  0  0  0  0  0  0  0  0  0  0  0
    7.3910   -1.1086    1.0527 C   0  0  0  0  0  0  0  0  0  0  0  0
    6.9950    0.2391    0.9551 C   0  0  0  0  0  0  0  0  0  0  0  0
    7.7722    1.3164    1.1516 N   0  0  0  0  0  0  0  0  0  0  0  0
    6.7999    2.6421    0.9264 S   0  0  0  0  0  0  0  0  0  0  0  0
    5.3589    1.9094    0.5598 N   0  0  0  0  0  0  0  0  0  0  0  0
    5.5700    0.5806    0.5979 C   0  0  0  0  0  0  0  0  0  0  0  0
    2.7660    0.5049   -1.0918 C   0  0  0  0  0  0  0  0  0  0  0  0
    3.5188    1.0531   -2.0983 C   0  0  0  0  0  0  0  0  0  0  0  0
    2.6994    1.6022   -3.0355 O   0  0  0  0  0  0  0  0  0  0  0  0
    1.4126    1.4020   -2.6230 C   0  0  0  0  0  0  0  0  0  0  0  0
    1.3867    0.7392   -1.4194 C   0  0  0  0  0  0  0  0  0  0  0  0
    0.2619    0.3022   -0.6398 C   0  0  0  0  0  0  0  0  0  0  0  0
   -3.5021   -0.0569   -0.0434 C   0  0  0  0  0  0  0  0  0  0  0  0
   -7.8289   -1.2147    1.4047 H   0  0  0  0  0  0  0  0  0  0  0  0
   -6.1647   -2.4493    2.8250 H   0  0  0  0  0  0  0  0  0  0  0  0
   -3.8036   -2.0613    2.2535 H   0  0  0  0  0  0  0  0  0  0  0  0
   -7.5519    0.5782   -0.7921 H   0  0  0  0  0  0  0  0  0  0  0  0
   -5.7520    1.6216   -2.1622 H   0  0  0  0  0  0  0  0  0  0  0  0
   -3.5198    2.0304   -2.7545 H   0  0  0  0  0  0  0  0  0  0  0  0
   -1.1712    1.8058   -2.5135 H   0  0  0  0  0  0  0  0  0  0  0  0
   -1.9855   -1.3190    1.9477 H   0  0  0  0  0  0  0  0  0  0  0  0
    2.3380   -1.2218    1.6834 H   0  0  0  0  0  0  0  0  0  0  0  0
    4.5222   -2.5983    0.3422 H   0  0  0  0  0  0  0  0  0  0  0  0
    8.3938   -1.4275    1.3037 H   0  0  0  0  0  0  0  0  0  0  0  0
    4.5768    1.1348   -2.3052 H   0  0  0  0  0  0  0  0  0  0  0  0
    0.6813    1.7811   -3.3181 H   0  0  0  0  0  0  0  0  0  0  0  0
  1  2  1  0
  2  3  1  0
  3  4  2  0
  4  5  1  0
  5  6  1  0
  6  7  2  0
  7  8  1  0
  8  9  2  0
  9 10  1  0
 10 11  2  0
 11 12  1  0
 12 13  1  0
 13 14  2  0
 14 15  1  0
 15 16  1  0
 16 17  2  0
 17 18  1  0
 18 19  2  0
 19 20  1  0
 20 21  2  0
 21 22  1  0
 22 23  2  0
 23 24  1  0
 24 25  1  0
 25 26  2  0
 17 27  1  0
 27 28  2  0
 28 29  1  0
 29 30  1  0
 30 31  2  0
 31 32  1  0
 12 33  2  0
  5  1  2  0
 33  8  1  0
 33  4  1  0
 32 11  1  0
 32 15  2  0
 26 18  1  0
 31 27  1  0
 26 22  1  0
  1 34  1  0
  2 35  1  0
  3 36  1  0
  6 37  1  0
  7 38  1  0
  9 39  1  0
 10 40  1  0
 13 41  1  0
 16 42  1  0
 19 43  1  0
 21 44  1  0
 28 45  1  0
 30 46  1  0
M  END
