
     RDKit          3D

 32 37  0  0  0  0  0  0  0  0999 V2000
   -5.6961    0.3078   -1.0424 C   0  0  0  0  0  0  0  0  0  0  0  0
   -5.7615    0.1269    0.3339 N   0  0  0  0  0  0  0  0  0  0  0  0
   -4.4918   -0.0025    0.8684 C   0  0  0  0  0  0  0  0  0  0  0  0
   -3.6626    0.1029   -0.2031 C   0  0  0  0  0  0  0  0  0  0  0  0
   -4.3698    0.2954   -1.4024 C   0  0  0  0  0  0  0  0  0  0  0  0
   -3.8643    0.4456   -2.6984 C   0  0  0  0  0  0  0  0  0  0  0  0
   -2.4445    0.3905   -2.7714 C   0  0  0  0  0  0  0  0  0  0  0  0
   -1.6914    0.1986   -1.5923 C   0  0  0  0  0  0  0  0  0  0  0  0
   -0.3135    0.1200   -1.4747 O   0  0  0  0  0  0  0  0  0  0  0  0
   -0.1526   -0.0655   -0.1414 C   0  0  0  0  0  0  0  0  0  0  0  0
    1.0140   -0.2061    0.5118 C   0  0  0  0  0  0  0  0  0  0  0  0
    2.2420   -0.1909   -0.0205 O   0  0  0  0  0  0  0  0  0  0  0  0
    3.0476   -0.3763    1.0915 C   0  0  0  0  0  0  0  0  0  0  0  0
    2.3072   -0.5001    2.2706 C   0  0  0  0  0  0  0  0  0  0  0  0
    0.9656   -0.3830    1.8523 C   0  0  0  0  0  0  0  0  0  0  0  0
   -0.7284   -0.3554    2.2243 S   0  0  0  0  0  0  0  0  0  0  0  0
   -1.2934   -0.1140    0.6109 C   0  0  0  0  0  0  0  0  0  0  0  0
   -2.2708    0.0585   -0.3466 C   0  0  0  0  0  0  0  0  0  0  0  0
    4.4875   -0.4088    0.8434 C   0  0  0  0  0  0  0  0  0  0  0  0
    4.9097   -0.2601   -0.4133 N   0  0  0  0  0  0  0  0  0  0  0  0
    6.2298   -0.3022   -0.5492 C   0  0  0  0  0  0  0  0  0  0  0  0
    7.1128   -0.4737    0.4329 N   0  0  0  0  0  0  0  0  0  0  0  0
    6.5649   -0.6099    1.6385 C   0  0  0  0  0  0  0  0  0  0  0  0
    5.2648   -0.5877    1.9162 N   0  0  0  0  0  0  0  0  0  0  0  0
   -6.6046    0.4261   -1.6172 H   0  0  0  0  0  0  0  0  0  0  0  0
   -6.6195    0.0945    0.8691 H   0  0  0  0  0  0  0  0  0  0  0  0
   -4.3342   -0.1513    1.9276 H   0  0  0  0  0  0  0  0  0  0  0  0
   -4.4793    0.5911   -3.5774 H   0  0  0  0  0  0  0  0  0  0  0  0
   -1.9378    0.4950   -3.7259 H   0  0  0  0  0  0  0  0  0  0  0  0
    2.7010   -0.6510    3.2650 H   0  0  0  0  0  0  0  0  0  0  0  0
    6.6248   -0.1861   -1.5528 H   0  0  0  0  0  0  0  0  0  0  0  0
    7.2441   -0.7523    2.4723 H   0  0  0  0  0  0  0  0  0  0  0  0
  1  2  1  0
  2  3  1  0
  3  4  2  0
  4  5  1  0
  5  6  1  0
  6  7  2  0
  7  8  1  0
  8  9  1  0
  9 10  1  0
 10 11  1  0
 11 12  1  0
 12 13  1  0
 13 14  2  0
 14 15  1  0
 15 16  1  0
 16 17  1  0
 17 18  1  0
 13 19  1  0
 19 20  2  0
 20 21  1  0
 21 22  2  0
 22 23  1  0
 23 24  2  0
  5  1  2  0
 18  8  2  0
 24 19  1  0
 18  4  1  0
 17 10  2  0
 15 11  2  0
  1 25  1  0
  2 26  1  0
  3 27  1  0
  6 28  1  0
  7 29  1  0
 14 30  1  0
 21 31  1  0
 23 32  1  0
M  END
