
     RDKit          3D

 40 46  0  0  0  0  0  0  0  0999 V2000
   -6.2588   -0.1668   -0.3679 C   0  0  0  0  0  0  0  0  0  0  0  0
   -5.7025   -1.1556   -1.1542 N   0  0  0  0  0  0  0  0  0  0  0  0
   -4.3232   -1.1072   -1.0739 C   0  0  0  0  0  0  0  0  0  0  0  0
   -4.0353   -0.1247   -0.1716 C   0  0  0  0  0  0  0  0  0  0  0  0
   -5.2241    0.5141    0.2285 C   0  0  0  0  0  0  0  0  0  0  0  0
   -5.3984    1.6365    1.0153 C   0  0  0  0  0  0  0  0  0  0  0  0
   -4.1664    2.2039    1.3794 C   0  0  0  0  0  0  0  0  0  0  0  0
   -2.9149    1.6162    1.0104 C   0  0  0  0  0  0  0  0  0  0  0  0
   -1.3479    2.2757    1.3098 S   0  0  0  0  0  0  0  0  0  0  0  0
   -0.5176    0.9315    0.5829 C   0  0  0  0  0  0  0  0  0  0  0  0
   -1.4643   -0.0159    0.1822 C   0  0  0  0  0  0  0  0  0  0  0  0
   -0.9163   -1.2707   -0.2546 C   0  0  0  0  0  0  0  0  0  0  0  0
   -1.4765   -2.4881   -0.4937 C   0  0  0  0  0  0  0  0  0  0  0  0
   -0.4825   -3.3586   -0.8592 O   0  0  0  0  0  0  0  0  0  0  0  0
    0.7026   -2.6776   -0.7884 C   0  0  0  0  0  0  0  0  0  0  0  0
    0.4812   -1.3847   -0.3746 C   0  0  0  0  0  0  0  0  0  0  0  0
    1.4670   -0.4251   -0.0915 C   0  0  0  0  0  0  0  0  0  0  0  0
    2.8724   -0.5191   -0.2154 C   0  0  0  0  0  0  0  0  0  0  0  0
    3.6880    0.5548    0.1713 C   0  0  0  0  0  0  0  0  0  0  0  0
    3.0185    1.6740    0.6761 C   0  0  0  0  0  0  0  0  0  0  0  0
    1.6698    1.8022    0.8155 N   0  0  0  0  0  0  0  0  0  0  0  0
    0.9015    0.7583    0.4273 C   0  0  0  0  0  0  0  0  0  0  0  0
    5.1537    0.5129    0.0616 C   0  0  0  0  0  0  0  0  0  0  0  0
    5.7091   -0.6011   -0.4296 N   0  0  0  0  0  0  0  0  0  0  0  0
    7.0380   -0.5761   -0.5035 C   0  0  0  0  0  0  0  0  0  0  0  0
    7.8235    0.4330   -0.1402 N   0  0  0  0  0  0  0  0  0  0  0  0
    7.1627    1.4852    0.3324 C   0  0  0  0  0  0  0  0  0  0  0  0
    5.8415    1.5888    0.4584 N   0  0  0  0  0  0  0  0  0  0  0  0
   -2.7904    0.4181    0.3105 C   0  0  0  0  0  0  0  0  0  0  0  0
   -7.3312   -0.0270   -0.3414 H   0  0  0  0  0  0  0  0  0  0  0  0
   -6.2265   -1.7870   -1.7465 H   0  0  0  0  0  0  0  0  0  0  0  0
   -3.7310   -1.7471   -1.7082 H   0  0  0  0  0  0  0  0  0  0  0  0
   -6.3495    2.0808    1.2744 H   0  0  0  0  0  0  0  0  0  0  0  0
   -4.1642    3.1336    1.9467 H   0  0  0  0  0  0  0  0  0  0  0  0
   -2.4594   -2.9268   -0.4302 H   0  0  0  0  0  0  0  0  0  0  0  0
    1.5803   -3.2623   -1.0263 H   0  0  0  0  0  0  0  0  0  0  0  0
    3.3196   -1.4289   -0.6082 H   0  0  0  0  0  0  0  0  0  0  0  0
    3.5710    2.5534    1.0043 H   0  0  0  0  0  0  0  0  0  0  0  0
    7.5255   -1.4617   -0.8969 H   0  0  0  0  0  0  0  0  0  0  0  0
    7.7549    2.3390    0.6444 H   0  0  0  0  0  0  0  0  0  0  0  0
  1  2  1  0
  2  3  1  0
  3  4  2  0
  4  5  1  0
  5  6  1  0
  6  7  2  0
  7  8  1  0
  8  9  1  0
  9 10  1  0
 10 11  2  0
 11 12  1  0
 12 13  2  0
 13 14  1  0
 14 15  1  0
 15 16  2  0
 16 17  1  0
 17 18  2  0
 18 19  1  0
 19 20  2  0
 20 21  1  0
 21 22  2  0
 19 23  1  0
 23 24  2  0
 24 25  1  0
 25 26  2  0
 26 27  1  0
 27 28  2  0
 11 29  1  0
  5  1  2  0
 29  8  2  0
 29  4  1  0
 22 10  1  0
 28 23  1  0
 16 12  1  0
 22 17  1  0
  1 30  1  0
  2 31  1  0
  3 32  1  0
  6 33  1  0
  7 34  1  0
 13 35  1  0
 15 36  1  0
 18 37  1  0
 20 38  1  0
 25 39  1  0
 27 40  1  0
M  END
