
     RDKit          3D

 28 31  0  0  0  0  0  0  0  0999 V2000
   -2.4898    0.3164    0.7067 C   0  0  0  0  0  0  0  0  0  0  0  0
   -3.5641   -0.2705    0.0723 C   0  0  0  0  0  0  0  0  0  0  0  0
   -4.6626    0.1720    0.7774 N   0  0  0  0  0  0  0  0  0  0  0  0
   -4.2631    1.0016    1.8072 C   0  0  0  0  0  0  0  0  0  0  0  0
   -2.8860    1.1084    1.7822 C   0  0  0  0  0  0  0  0  0  0  0  0
   -3.4253   -1.1131   -1.0382 C   0  0  0  0  0  0  0  0  0  0  0  0
   -2.1275   -1.3674   -1.5227 C   0  0  0  0  0  0  0  0  0  0  0  0
   -1.0681   -0.7574   -0.8564 C   0  0  0  0  0  0  0  0  0  0  0  0
   -1.1756    0.0727    0.2341 C   0  0  0  0  0  0  0  0  0  0  0  0
    0.0324    0.5176    0.6682 N   0  0  0  0  0  0  0  0  0  0  0  0
    0.8692   -0.0601   -0.1814 C   0  0  0  0  0  0  0  0  0  0  0  0
    2.3272    0.0326   -0.2342 C   0  0  0  0  0  0  0  0  0  0  0  0
    3.0052    0.8208    0.7087 C   0  0  0  0  0  0  0  0  0  0  0  0
    4.3981    0.9294    0.6841 C   0  0  0  0  0  0  0  0  0  0  0  0
    5.1321    0.2499   -0.2854 C   0  0  0  0  0  0  0  0  0  0  0  0
    4.4755   -0.5370   -1.2292 C   0  0  0  0  0  0  0  0  0  0  0  0
    3.0819   -0.6451   -1.2039 C   0  0  0  0  0  0  0  0  0  0  0  0
    0.2670   -0.8520   -1.1381 O   0  0  0  0  0  0  0  0  0  0  0  0
   -5.6207   -0.0753    0.5701 H   0  0  0  0  0  0  0  0  0  0  0  0
   -4.9980    1.4428    2.4673 H   0  0  0  0  0  0  0  0  0  0  0  0
   -2.2658    1.6843    2.4562 H   0  0  0  0  0  0  0  0  0  0  0  0
   -4.2894   -1.5622   -1.5187 H   0  0  0  0  0  0  0  0  0  0  0  0
   -1.9573   -2.0106   -2.3780 H   0  0  0  0  0  0  0  0  0  0  0  0
    2.4439    1.3576    1.4723 H   0  0  0  0  0  0  0  0  0  0  0  0
    4.9066    1.5443    1.4222 H   0  0  0  0  0  0  0  0  0  0  0  0
    6.2157    0.3338   -0.3052 H   0  0  0  0  0  0  0  0  0  0  0  0
    5.0469   -1.0680   -1.9865 H   0  0  0  0  0  0  0  0  0  0  0  0
    2.5915   -1.2655   -1.9511 H   0  0  0  0  0  0  0  0  0  0  0  0
  1  2  2  0
  2  3  1  0
  3  4  1  0
  4  5  2  0
  2  6  1  0
  6  7  2  0
  7  8  1  0
  8  9  2  0
  9 10  1  0
 10 11  2  0
 11 12  1  0
 12 13  2  0
 13 14  1  0
 14 15  2  0
 15 16  1  0
 16 17  2  0
 11 18  1  0
  9  1  1  0
  5  1  1  0
 18  8  1  0
 17 12  1  0
  3 19  1  0
  4 20  1  0
  5 21  1  0
  6 22  1  0
  7 23  1  0
 13 24  1  0
 14 25  1  0
 15 26  1  0
 16 27  1  0
 17 28  1  0
M  END
