
     RDKit          3D

 43 49  0  0  0  0  0  0  0  0999 V2000
   -1.8173    1.2089   -0.4911 Si  0  0  0  0  0  4  0  0  0  0  0  0
   -3.2800    0.4353    0.4166 C   0  0  0  0  0  0  0  0  0  0  0  0
   -2.8866   -0.6003    1.1862 C   0  0  0  0  0  0  0  0  0  0  0  0
   -1.4604   -0.8964    1.1425 C   0  0  0  0  0  0  0  0  0  0  0  0
   -0.7341   -0.0885    0.3439 C   0  0  0  0  0  0  0  0  0  0  0  0
    0.6513   -0.1997    0.1298 C   0  0  0  0  0  0  0  0  0  0  0  0
    1.7890    1.0233    0.5572 S   0  0  0  0  0  0  0  0  0  0  0  0
    3.1482    0.1121    0.0053 C   0  0  0  0  0  0  0  0  0  0  0  0
    4.4916    0.6591    0.1159 C   0  0  0  0  0  0  0  0  0  0  0  0
    4.8624    1.9124   -0.4235 C   0  0  0  0  0  0  0  0  0  0  0  0
    6.1677    2.4489   -0.3225 C   0  0  0  0  0  0  0  0  0  0  0  0
    7.2204    1.7835    0.3264 C   0  0  0  0  0  0  0  0  0  0  0  0
    6.9123    0.5223    0.8905 C   0  0  0  0  0  0  0  0  0  0  0  0
    7.7750   -0.2662    1.5493 N   0  0  0  0  0  0  0  0  0  0  0  0
    6.9214   -1.6103    2.0152 S   0  0  0  0  0  0  0  0  0  0  0  0
    5.4259   -1.2621    1.3914 N   0  0  0  0  0  0  0  0  0  0  0  0
    5.5199   -0.0624    0.7887 C   0  0  0  0  0  0  0  0  0  0  0  0
    2.6780   -1.0648   -0.4791 C   0  0  0  0  0  0  0  0  0  0  0  0
    3.2928   -2.1969   -1.0778 C   0  0  0  0  0  0  0  0  0  0  0  0
    2.3721   -3.1862   -1.4381 C   0  0  0  0  0  0  0  0  0  0  0  0
    0.6846   -2.8399   -1.0987 S   0  0  0  0  0  0  0  0  0  0  0  0
    1.2975   -1.2720   -0.4292 C   0  0  0  0  0  0  0  0  0  0  0  0
   -4.6042    0.8901    0.2896 C   0  0  0  0  0  0  0  0  0  0  0  0
   -5.1238    2.5194    0.6112 S   0  0  0  0  0  0  0  0  0  0  0  0
   -6.7902    2.1827    0.2497 C   0  0  0  0  0  0  0  0  0  0  0  0
   -6.8757    0.8832   -0.0966 C   0  0  0  0  0  0  0  0  0  0  0  0
   -7.8202   -0.0878   -0.5090 C   0  0  0  0  0  0  0  0  0  0  0  0
   -7.1135   -1.2935   -0.7061 C   0  0  0  0  0  0  0  0  0  0  0  0
   -5.7542   -1.1422   -0.4386 N   0  0  0  0  0  0  0  0  0  0  0  0
   -5.6943    0.1753   -0.0780 C   0  0  0  0  0  0  0  0  0  0  0  0
   -1.8921    1.0152   -1.9633 H   0  0  0  0  0  0  0  0  0  0  0  0
   -1.5081    2.5900   -0.0361 H   0  0  0  0  0  0  0  0  0  0  0  0
   -3.5482   -1.1871    1.8128 H   0  0  0  0  0  0  0  0  0  0  0  0
   -1.0506   -1.7148    1.7232 H   0  0  0  0  0  0  0  0  0  0  0  0
    4.1122    2.5019   -0.9532 H   0  0  0  0  0  0  0  0  0  0  0  0
    6.3650    3.4240   -0.7697 H   0  0  0  0  0  0  0  0  0  0  0  0
    8.2155    2.2065    0.3969 H   0  0  0  0  0  0  0  0  0  0  0  0
    4.3575   -2.3107   -1.2421 H   0  0  0  0  0  0  0  0  0  0  0  0
    2.5958   -4.1372   -1.9021 H   0  0  0  0  0  0  0  0  0  0  0  0
   -7.5509    2.9467    0.3159 H   0  0  0  0  0  0  0  0  0  0  0  0
   -8.8838    0.0445   -0.6562 H   0  0  0  0  0  0  0  0  0  0  0  0
   -7.4789   -2.2617   -1.0237 H   0  0  0  0  0  0  0  0  0  0  0  0
   -4.9892   -1.8040   -0.4919 H   0  0  0  0  0  0  0  0  0  0  0  0
  1  2  1  0
  2  3  2  0
  3  4  1  0
  4  5  2  0
  5  6  1  0
  6  7  1  0
  7  8  1  0
  8  9  1  0
  9 10  2  0
 10 11  1  0
 11 12  2  0
 12 13  1  0
 13 14  2  0
 14 15  1  0
 15 16  1  0
 16 17  2  0
  8 18  2  0
 18 19  1  0
 19 20  2  0
 20 21  1  0
 21 22  1  0
  2 23  1  0
 23 24  1  0
 24 25  1  0
 25 26  2  0
 26 27  1  0
 27 28  2  0
 28 29  1  0
 29 30  1  0
  5  1  1  0
 22  6  2  0
 30 23  2  0
 17  9  1  0
 22 18  1  0
 30 26  1  0
 17 13  1  0
  1 31  1  0
  1 32  1  0
  3 33  1  0
  4 34  1  0
 10 35  1  0
 11 36  1  0
 12 37  1  0
 19 38  1  0
 20 39  1  0
 25 40  1  0
 27 41  1  0
 28 42  1  0
 29 43  1  0
M  END
