
     RDKit          3D

 35 39  0  0  0  0  0  0  0  0999 V2000
   -3.3349   -0.6036    0.2560 C   0  0  0  0  0  0  0  0  0  0  0  0
   -4.5462    0.0500   -0.0148 C   0  0  0  0  0  0  0  0  0  0  0  0
   -4.5554    1.3584   -0.4942 C   0  0  0  0  0  0  0  0  0  0  0  0
   -3.3533    2.0297   -0.7089 C   0  0  0  0  0  0  0  0  0  0  0  0
   -2.1271    1.4009   -0.4469 C   0  0  0  0  0  0  0  0  0  0  0  0
   -2.1111    0.0743    0.0394 C   0  0  0  0  0  0  0  0  0  0  0  0
   -0.8752   -0.5734    0.3087 C   0  0  0  0  0  0  0  0  0  0  0  0
   -0.8845   -1.9028    0.7953 C   0  0  0  0  0  0  0  0  0  0  0  0
   -2.1048   -2.5585    1.0038 C   0  0  0  0  0  0  0  0  0  0  0  0
   -3.3150   -1.9172    0.7376 C   0  0  0  0  0  0  0  0  0  0  0  0
    0.3254   -2.5490    1.0633 C   0  0  0  0  0  0  0  0  0  0  0  0
    1.5371   -1.8944    0.8550 C   0  0  0  0  0  0  0  0  0  0  0  0
    1.5751   -0.5754    0.3730 C   0  0  0  0  0  0  0  0  0  0  0  0
    2.8905    0.0523    0.1772 C   0  0  0  0  0  0  0  0  0  0  0  0
    3.5622   -0.0575   -1.0441 C   0  0  0  0  0  0  0  0  0  0  0  0
    4.7995    0.5504   -1.1795 C   0  0  0  0  0  0  0  0  0  0  0  0
    5.4050    1.2483   -0.1954 N   0  0  0  0  0  0  0  0  0  0  0  0
    4.7434    1.3406    0.9775 C   0  0  0  0  0  0  0  0  0  0  0  0
    3.5036    0.7682    1.2100 C   0  0  0  0  0  0  0  0  0  0  0  0
    0.3549    0.1019    0.0932 C   0  0  0  0  0  0  0  0  0  0  0  0
    0.2993    1.4261   -0.3932 C   0  0  0  0  0  0  0  0  0  0  0  0
   -0.9155    2.0632   -0.6580 C   0  0  0  0  0  0  0  0  0  0  0  0
   -5.4947   -0.4575    0.1465 H   0  0  0  0  0  0  0  0  0  0  0  0
   -5.4998    1.8551   -0.7006 H   0  0  0  0  0  0  0  0  0  0  0  0
   -3.3805    3.0506   -1.0835 H   0  0  0  0  0  0  0  0  0  0  0  0
   -2.1258   -3.5800    1.3774 H   0  0  0  0  0  0  0  0  0  0  0  0
   -4.2441   -2.4557    0.9108 H   0  0  0  0  0  0  0  0  0  0  0  0
    0.3375   -3.5702    1.4377 H   0  0  0  0  0  0  0  0  0  0  0  0
    2.4648   -2.4214    1.0721 H   0  0  0  0  0  0  0  0  0  0  0  0
    3.1287   -0.6033   -1.8758 H   0  0  0  0  0  0  0  0  0  0  0  0
    5.3526    0.4901   -2.1124 H   0  0  0  0  0  0  0  0  0  0  0  0
    5.2520    1.9061    1.7529 H   0  0  0  0  0  0  0  0  0  0  0  0
    3.0233    0.8811    2.1765 H   0  0  0  0  0  0  0  0  0  0  0  0
    1.2139    1.9877   -0.5752 H   0  0  0  0  0  0  0  0  0  0  0  0
   -0.9011    3.0847   -1.0318 H   0  0  0  0  0  0  0  0  0  0  0  0
  1  2  2  0
  2  3  1  0
  3  4  2  0
  4  5  1  0
  5  6  2  0
  6  7  1  0
  7  8  2  0
  8  9  1  0
  9 10  2  0
  8 11  1  0
 11 12  2  0
 12 13  1  0
 13 14  1  0
 14 15  2  0
 15 16  1  0
 16 17  2  0
 17 18  1  0
 18 19  2  0
  7 20  1  0
 20 21  1  0
 21 22  2  0
  6  1  1  0
 10  1  1  0
 22  5  1  0
 20 13  2  0
 19 14  1  0
  2 23  1  0
  3 24  1  0
  4 25  1  0
  9 26  1  0
 10 27  1  0
 11 28  1  0
 12 29  1  0
 15 30  1  0
 16 31  1  0
 18 32  1  0
 19 33  1  0
 21 34  1  0
 22 35  1  0
M  END
