
     RDKit          3D

 24 26  0  0  0  0  0  0  0  0999 V2000
   -1.7826   -0.1952   -0.7992 C   0  0  0  0  0  0  0  0  0  0  0  0
   -0.4996   -0.1100   -1.1736 N   0  0  0  0  0  0  0  0  0  0  0  0
    0.1569    0.0134    0.0061 N   0  0  0  0  0  0  0  0  0  0  0  0
    1.5723    0.1346    0.0611 C   0  0  0  0  0  0  0  0  0  0  0  0
    2.2210    0.2608    1.2986 C   0  0  0  0  0  0  0  0  0  0  0  0
    3.6116    0.3796    1.3482 C   0  0  0  0  0  0  0  0  0  0  0  0
    4.3571    0.3730    0.1695 C   0  0  0  0  0  0  0  0  0  0  0  0
    3.7167    0.2478   -1.0632 C   0  0  0  0  0  0  0  0  0  0  0  0
    2.3265    0.1285   -1.1217 C   0  0  0  0  0  0  0  0  0  0  0  0
   -0.6000    0.0159    1.1309 N   0  0  0  0  0  0  0  0  0  0  0  0
   -1.8461   -0.1155    0.6580 C   0  0  0  0  0  0  0  0  0  0  0  0
   -3.0620   -0.1758    1.3618 C   0  0  0  0  0  0  0  0  0  0  0  0
   -4.2017   -0.3183    0.5466 C   0  0  0  0  0  0  0  0  0  0  0  0
   -4.1399   -0.3958   -0.8711 C   0  0  0  0  0  0  0  0  0  0  0  0
   -2.9331   -0.3375   -1.5950 C   0  0  0  0  0  0  0  0  0  0  0  0
    1.6581    0.2682    2.2299 H   0  0  0  0  0  0  0  0  0  0  0  0
    4.1131    0.4774    2.3078 H   0  0  0  0  0  0  0  0  0  0  0  0
    5.4395    0.4657    0.2116 H   0  0  0  0  0  0  0  0  0  0  0  0
    4.3000    0.2429   -1.9806 H   0  0  0  0  0  0  0  0  0  0  0  0
    1.8464    0.0318   -2.0936 H   0  0  0  0  0  0  0  0  0  0  0  0
   -3.1123   -0.1171    2.4407 H   0  0  0  0  0  0  0  0  0  0  0  0
   -5.1796   -0.3719    1.0264 H   0  0  0  0  0  0  0  0  0  0  0  0
   -5.0728   -0.5059   -1.4251 H   0  0  0  0  0  0  0  0  0  0  0  0
   -2.8894   -0.3967   -2.6741 H   0  0  0  0  0  0  0  0  0  0  0  0
  1  2  2  0
  2  3  1  0
  3  4  1  0
  4  5  2  0
  5  6  1  0
  6  7  2  0
  7  8  1  0
  8  9  2  0
  3 10  1  0
 10 11  2  0
 11 12  1  0
 12 13  2  0
 13 14  1  0
 14 15  2  0
 11  1  1  0
 15  1  1  0
  9  4  1  0
  5 16  1  0
  6 17  1  0
  7 18  1  0
  8 19  1  0
  9 20  1  0
 12 21  1  0
 13 22  1  0
 14 23  1  0
 15 24  1  0
M  END
