
     RDKit          3D

 34 38  0  0  0  0  0  0  0  0999 V2000
    1.4308    1.7547    0.0766 C   0  0  0  0  0  0  0  0  0  0  0  0
    2.1324    0.5554    0.0466 C   0  0  0  0  0  0  0  0  0  0  0  0
    1.1989   -0.4613    0.0483 N   0  0  0  0  0  0  0  0  0  0  0  0
   -0.0655    0.0747    0.0785 C   0  0  0  0  0  0  0  0  0  0  0  0
    0.0476    1.4242    0.0962 C   0  0  0  0  0  0  0  0  0  0  0  0
   -1.4848    2.2097    0.1348 S   0  0  0  0  0  0  0  0  0  0  0  0
   -2.3044    0.6698    0.1269 C   0  0  0  0  0  0  0  0  0  0  0  0
   -1.4078   -0.4088    0.0952 C   0  0  0  0  0  0  0  0  0  0  0  0
   -1.9104   -1.7309    0.0848 C   0  0  0  0  0  0  0  0  0  0  0  0
   -3.2885   -1.9601    0.1058 C   0  0  0  0  0  0  0  0  0  0  0  0
   -4.1829   -0.8882    0.1373 C   0  0  0  0  0  0  0  0  0  0  0  0
   -5.5725   -1.0653    0.1594 C   0  0  0  0  0  0  0  0  0  0  0  0
   -6.4120    0.0460    0.1905 C   0  0  0  0  0  0  0  0  0  0  0  0
   -5.8384    1.3070    0.1987 C   0  0  0  0  0  0  0  0  0  0  0  0
   -4.5077    1.5289    0.1784 N   0  0  0  0  0  0  0  0  0  0  0  0
   -3.7034    0.4362    0.1482 C   0  0  0  0  0  0  0  0  0  0  0  0
    3.5887    0.3126    0.0173 C   0  0  0  0  0  0  0  0  0  0  0  0
    4.4888    1.3903    0.0170 C   0  0  0  0  0  0  0  0  0  0  0  0
    5.8719    1.1821   -0.0105 C   0  0  0  0  0  0  0  0  0  0  0  0
    6.3820   -0.1114   -0.0384 C   0  0  0  0  0  0  0  0  0  0  0  0
    5.5094   -1.1948   -0.0387 C   0  0  0  0  0  0  0  0  0  0  0  0
    4.1257   -0.9845   -0.0111 C   0  0  0  0  0  0  0  0  0  0  0  0
    1.8425    2.7543    0.0839 H   0  0  0  0  0  0  0  0  0  0  0  0
    1.3687   -1.4575    0.0307 H   0  0  0  0  0  0  0  0  0  0  0  0
   -1.2270   -2.5759    0.0603 H   0  0  0  0  0  0  0  0  0  0  0  0
   -3.6539   -2.9846    0.0973 H   0  0  0  0  0  0  0  0  0  0  0  0
   -6.0064   -2.0617    0.1525 H   0  0  0  0  0  0  0  0  0  0  0  0
   -7.4901   -0.0689    0.2079 H   0  0  0  0  0  0  0  0  0  0  0  0
   -6.4542    2.2017    0.2227 H   0  0  0  0  0  0  0  0  0  0  0  0
    4.1290    2.4154    0.0383 H   0  0  0  0  0  0  0  0  0  0  0  0
    6.5469    2.0340   -0.0101 H   0  0  0  0  0  0  0  0  0  0  0  0
    7.4562   -0.2742   -0.0598 H   0  0  0  0  0  0  0  0  0  0  0  0
    5.9033   -2.2077   -0.0604 H   0  0  0  0  0  0  0  0  0  0  0  0
    3.4869   -1.8614   -0.0125 H   0  0  0  0  0  0  0  0  0  0  0  0
  1  2  2  0
  2  3  1  0
  3  4  1  0
  4  5  2  0
  5  6  1  0
  6  7  1  0
  7  8  2  0
  8  9  1  0
  9 10  2  0
 10 11  1  0
 11 12  2  0
 12 13  1  0
 13 14  2  0
 14 15  1  0
 15 16  2  0
  2 17  1  0
 17 18  2  0
 18 19  1  0
 19 20  2  0
 20 21  1  0
 21 22  2  0
  5  1  1  0
 16  7  1  0
 22 17  1  0
  8  4  1  0
 16 11  1  0
  1 23  1  0
  3 24  1  0
  9 25  1  0
 10 26  1  0
 12 27  1  0
 13 28  1  0
 14 29  1  0
 18 30  1  0
 19 31  1  0
 20 32  1  0
 21 33  1  0
 22 34  1  0
M  END
