
     RDKit          3D

 36 42  0  0  0  0  0  0  0  0999 V2000
    1.8434    1.2956    0.3309 C   0  0  0  0  0  0  0  0  0  0  0  0
    2.4156    0.0791   -0.0169 C   0  0  0  0  0  0  0  0  0  0  0  0
    1.3489   -0.7741   -0.2375 N   0  0  0  0  0  0  0  0  0  0  0  0
    0.1472   -0.1372   -0.0410 C   0  0  0  0  0  0  0  0  0  0  0  0
   -1.1586   -0.6052   -0.1504 C   0  0  0  0  0  0  0  0  0  0  0  0
   -2.2520    0.2501    0.1053 C   0  0  0  0  0  0  0  0  0  0  0  0
   -1.9628    1.5708    0.4685 C   0  0  0  0  0  0  0  0  0  0  0  0
   -0.6410    2.0266    0.5742 C   0  0  0  0  0  0  0  0  0  0  0  0
    0.4294    1.1677    0.3179 C   0  0  0  0  0  0  0  0  0  0  0  0
   -3.3890    2.4984    0.7496 S   0  0  0  0  0  0  0  0  0  0  0  0
   -4.4354    1.1804    0.3992 C   0  0  0  0  0  0  0  0  0  0  0  0
   -5.8508    1.1806    0.4219 C   0  0  0  0  0  0  0  0  0  0  0  0
   -6.5767    0.0224    0.1111 C   0  0  0  0  0  0  0  0  0  0  0  0
   -5.8224   -1.1193   -0.2189 C   0  0  0  0  0  0  0  0  0  0  0  0
   -6.3318   -2.3226   -0.5459 N   0  0  0  0  0  0  0  0  0  0  0  0
   -5.0317   -3.3304   -0.8473 S   0  0  0  0  0  0  0  0  0  0  0  0
   -3.7589   -2.2788   -0.5748 N   0  0  0  0  0  0  0  0  0  0  0  0
   -4.3679   -1.1474   -0.2500 C   0  0  0  0  0  0  0  0  0  0  0  0
   -3.6685    0.0751    0.0792 C   0  0  0  0  0  0  0  0  0  0  0  0
    3.8175   -0.3314   -0.1537 C   0  0  0  0  0  0  0  0  0  0  0  0
    4.2381   -1.6212   -0.5195 C   0  0  0  0  0  0  0  0  0  0  0  0
    5.5198   -2.0957   -0.6722 N   0  0  0  0  0  0  0  0  0  0  0  0
    6.5883   -1.2784   -0.4617 C   0  0  0  0  0  0  0  0  0  0  0  0
    6.3391    0.0551   -0.0865 C   0  0  0  0  0  0  0  0  0  0  0  0
    7.2680    0.9929    0.1597 N   0  0  0  0  0  0  0  0  0  0  0  0
    6.4429    2.3738    0.5574 S   0  0  0  0  0  0  0  0  0  0  0  0
    4.8799    1.8441    0.4349 N   0  0  0  0  0  0  0  0  0  0  0  0
    4.9159    0.5470    0.0732 C   0  0  0  0  0  0  0  0  0  0  0  0
    2.3800    2.2034    0.5751 H   0  0  0  0  0  0  0  0  0  0  0  0
    1.4171   -1.7437   -0.5086 H   0  0  0  0  0  0  0  0  0  0  0  0
   -1.3341   -1.6392   -0.4355 H   0  0  0  0  0  0  0  0  0  0  0  0
   -0.4436    3.0576    0.8582 H   0  0  0  0  0  0  0  0  0  0  0  0
   -6.3868    2.0914    0.6842 H   0  0  0  0  0  0  0  0  0  0  0  0
   -7.6602    0.0030    0.1230 H   0  0  0  0  0  0  0  0  0  0  0  0
    3.5024   -2.3975   -0.7239 H   0  0  0  0  0  0  0  0  0  0  0  0
    7.5788   -1.6932   -0.5931 H   0  0  0  0  0  0  0  0  0  0  0  0
  1  2  2  0
  2  3  1  0
  3  4  1  0
  4  5  2  0
  5  6  1  0
  6  7  2  0
  7  8  1  0
  8  9  2  0
  7 10  1  0
 10 11  1  0
 11 12  1  0
 12 13  2  0
 13 14  1  0
 14 15  2  0
 15 16  1  0
 16 17  1  0
 17 18  2  0
 18 19  1  0
  2 20  1  0
 20 21  2  0
 21 22  1  0
 22 23  2  0
 23 24  1  0
 24 25  2  0
 25 26  1  0
 26 27  1  0
 27 28  2  0
  9  1  1  0
 19 11  2  0
 28 20  1  0
  9  4  1  0
 18 14  1  0
 28 24  1  0
 19  6  1  0
  1 29  1  0
  3 30  1  0
  5 31  1  0
  8 32  1  0
 12 33  1  0
 13 34  1  0
 21 35  1  0
 23 36  1  0
M  END
