
     RDKit          3D

 34 39  0  0  0  0  0  0  0  0999 V2000
   -0.5972   -1.4294    0.5550 C   0  0  0  0  0  0  0  0  0  0  0  0
   -1.7414   -0.4295    0.1169 C   0  0  0  0  0  0  0  0  0  0  0  0
   -1.2094    0.7390   -0.3515 C   0  0  0  0  0  0  0  0  0  0  0  0
    0.1804    0.5936   -0.2592 C   0  0  0  0  0  0  0  0  0  0  0  0
    1.2268    1.3903   -0.5623 N   0  0  0  0  0  0  0  0  0  0  0  0
    2.3479    0.6505   -0.2314 C   0  0  0  0  0  0  0  0  0  0  0  0
    1.9679   -0.5775    0.2648 C   0  0  0  0  0  0  0  0  0  0  0  0
    3.0918   -1.2923    0.5855 N   0  0  0  0  0  0  0  0  0  0  0  0
    4.1937   -0.5161    0.2923 C   0  0  0  0  0  0  0  0  0  0  0  0
    5.5605   -0.7597    0.4251 C   0  0  0  0  0  0  0  0  0  0  0  0
    6.4053    0.2756    0.0193 C   0  0  0  0  0  0  0  0  0  0  0  0
    5.8608    1.4567   -0.4796 C   0  0  0  0  0  0  0  0  0  0  0  0
    4.5417    1.7207   -0.6196 N   0  0  0  0  0  0  0  0  0  0  0  0
    3.7538    0.7028   -0.2196 C   0  0  0  0  0  0  0  0  0  0  0  0
    0.5737   -0.6086    0.2447 C   0  0  0  0  0  0  0  0  0  0  0  0
   -3.1416   -0.6696    0.1832 C   0  0  0  0  0  0  0  0  0  0  0  0
   -3.8132   -2.1655    0.7850 S   0  0  0  0  0  0  0  0  0  0  0  0
   -5.4588   -1.6677    0.5412 C   0  0  0  0  0  0  0  0  0  0  0  0
   -5.4335   -0.4216    0.0274 C   0  0  0  0  0  0  0  0  0  0  0  0
   -6.3204    0.5750   -0.4047 C   0  0  0  0  0  0  0  0  0  0  0  0
   -5.4991    1.6290   -0.8207 C   0  0  0  0  0  0  0  0  0  0  0  0
   -4.1461    1.3811   -0.6869 O   0  0  0  0  0  0  0  0  0  0  0  0
   -4.1841    0.1199   -0.1670 C   0  0  0  0  0  0  0  0  0  0  0  0
   -0.6332   -2.3432   -0.0450 H   0  0  0  0  0  0  0  0  0  0  0  0
   -0.6721   -1.6574    1.6221 H   0  0  0  0  0  0  0  0  0  0  0  0
   -1.7213    1.6132   -0.7231 H   0  0  0  0  0  0  0  0  0  0  0  0
    1.2598    2.3268   -0.9468 H   0  0  0  0  0  0  0  0  0  0  0  0
    3.0768   -2.2273    0.9698 H   0  0  0  0  0  0  0  0  0  0  0  0
    5.9473   -1.6924    0.8180 H   0  0  0  0  0  0  0  0  0  0  0  0
    7.4824    0.1635    0.0910 H   0  0  0  0  0  0  0  0  0  0  0  0
    6.5158    2.2649   -0.7965 H   0  0  0  0  0  0  0  0  0  0  0  0
   -6.2888   -2.3136    0.7886 H   0  0  0  0  0  0  0  0  0  0  0  0
   -7.4005    0.5635   -0.4251 H   0  0  0  0  0  0  0  0  0  0  0  0
   -5.7257    2.6053   -1.2291 H   0  0  0  0  0  0  0  0  0  0  0  0
  1  2  1  0
  2  3  2  0
  3  4  1  0
  4  5  1  0
  5  6  1  0
  6  7  2  0
  7  8  1  0
  8  9  1  0
  9 10  2  0
 10 11  1  0
 11 12  2  0
 12 13  1  0
 13 14  2  0
  7 15  1  0
  2 16  1  0
 16 17  1  0
 17 18  1  0
 18 19  2  0
 19 20  1  0
 20 21  2  0
 21 22  1  0
 22 23  1  0
 15  1  1  0
 23 16  2  0
 15  4  2  0
 23 19  1  0
 14  6  1  0
 14  9  1  0
  1 24  1  0
  1 25  1  0
  3 26  1  0
  5 27  1  0
  8 28  1  0
 10 29  1  0
 11 30  1  0
 12 31  1  0
 18 32  1  0
 20 33  1  0
 21 34  1  0
M  END
