
     RDKit          3D

 38 43  0  0  0  0  0  0  0  0999 V2000
    2.5301   -1.3458   -0.8165 C   0  0  0  0  0  0  0  0  0  0  0  0
    3.3464   -0.1740   -0.2094 C   0  0  0  0  0  0  0  0  0  0  0  0
    2.5534    0.7864    0.3394 C   0  0  0  0  0  0  0  0  0  0  0  0
    1.2462    0.3306    0.1379 C   0  0  0  0  0  0  0  0  0  0  0  0
    0.0202    0.8268    0.4501 N   0  0  0  0  0  0  0  0  0  0  0  0
   -0.8845   -0.0963   -0.0189 C   0  0  0  0  0  0  0  0  0  0  0  0
   -0.1825   -1.1418   -0.6106 C   0  0  0  0  0  0  0  0  0  0  0  0
   -1.4250   -2.3681   -1.2322 Si  0  0  0  0  0  4  0  0  0  0  0  0
   -2.8059   -1.1997   -0.5500 C   0  0  0  0  0  0  0  0  0  0  0  0
   -4.2194   -1.5176   -0.6728 C   0  0  0  0  0  0  0  0  0  0  0  0
   -5.1498   -0.6752   -0.1831 C   0  0  0  0  0  0  0  0  0  0  0  0
   -4.7260    0.5536    0.4686 C   0  0  0  0  0  0  0  0  0  0  0  0
   -5.5657    1.4658    0.9928 C   0  0  0  0  0  0  0  0  0  0  0  0
   -4.6168    2.8908    1.7324 Si  0  0  0  0  0  4  0  0  0  0  0  0
   -3.0242    2.0442    1.2173 C   0  0  0  0  0  0  0  0  0  0  0  0
   -3.2732    0.8756    0.5922 C   0  0  0  0  0  0  0  0  0  0  0  0
   -2.3068   -0.0716    0.0445 C   0  0  0  0  0  0  0  0  0  0  0  0
    1.1596   -0.8745   -0.5128 C   0  0  0  0  0  0  0  0  0  0  0  0
    4.8022   -0.1819   -0.2647 C   0  0  0  0  0  0  0  0  0  0  0  0
    5.3858   -1.2284   -0.8530 N   0  0  0  0  0  0  0  0  0  0  0  0
    6.7153   -1.1776   -0.8719 C   0  0  0  0  0  0  0  0  0  0  0  0
    7.4707   -0.2043   -0.3704 N   0  0  0  0  0  0  0  0  0  0  0  0
    6.7744    0.7816    0.1890 C   0  0  0  0  0  0  0  0  0  0  0  0
    5.4492    0.8549    0.2751 N   0  0  0  0  0  0  0  0  0  0  0  0
    2.7531   -2.2901   -0.3108 H   0  0  0  0  0  0  0  0  0  0  0  0
    2.6976   -1.4311   -1.8943 H   0  0  0  0  0  0  0  0  0  0  0  0
    2.8627    1.7000    0.8242 H   0  0  0  0  0  0  0  0  0  0  0  0
   -0.1822    1.6928    0.9270 H   0  0  0  0  0  0  0  0  0  0  0  0
   -1.4295   -3.6719   -0.5176 H   0  0  0  0  0  0  0  0  0  0  0  0
   -1.5066   -2.4812   -2.7125 H   0  0  0  0  0  0  0  0  0  0  0  0
   -4.5203   -2.4388   -1.1619 H   0  0  0  0  0  0  0  0  0  0  0  0
   -6.2082   -0.8958   -0.2656 H   0  0  0  0  0  0  0  0  0  0  0  0
   -6.6430    1.4298    1.0111 H   0  0  0  0  0  0  0  0  0  0  0  0
   -4.7566    2.9691    3.2065 H   0  0  0  0  0  0  0  0  0  0  0  0
   -4.8339    4.1638    1.0039 H   0  0  0  0  0  0  0  0  0  0  0  0
   -2.0790    2.5054    1.4343 H   0  0  0  0  0  0  0  0  0  0  0  0
    7.2318   -2.0083   -1.3408 H   0  0  0  0  0  0  0  0  0  0  0  0
    7.3403    1.6031    0.6149 H   0  0  0  0  0  0  0  0  0  0  0  0
  1  2  1  0
  2  3  2  0
  3  4  1  0
  4  5  1  0
  5  6  1  0
  6  7  2  0
  7  8  1  0
  8  9  1  0
  9 10  1  0
 10 11  2  0
 11 12  1  0
 12 13  2  0
 13 14  1  0
 14 15  1  0
 15 16  2  0
 16 17  1  0
  7 18  1  0
  2 19  1  0
 19 20  2  0
 20 21  1  0
 21 22  2  0
 22 23  1  0
 23 24  2  0
 18  1  1  0
 24 19  1  0
 18  4  2  0
  6 17  1  0
 17  9  2  0
 16 12  1  0
  1 25  1  0
  1 26  1  0
  3 27  1  0
  5 28  1  0
  8 29  1  0
  8 30  1  0
 10 31  1  0
 11 32  1  0
 13 33  1  0
 14 34  1  0
 14 35  1  0
 15 36  1  0
 21 37  1  0
 23 38  1  0
M  END
