
     RDKit          3D

 32 36  0  0  0  0  0  0  0  0999 V2000
   -0.2849    1.3884   -0.1629 C   0  0  0  0  0  0  0  0  0  0  0  0
    0.8939    0.4146    0.1857 C   0  0  0  0  0  0  0  0  0  0  0  0
    0.4354   -0.8409    0.4558 C   0  0  0  0  0  0  0  0  0  0  0  0
   -0.9506   -0.7720    0.2895 C   0  0  0  0  0  0  0  0  0  0  0  0
   -1.9583   -1.6577    0.4072 N   0  0  0  0  0  0  0  0  0  0  0  0
   -3.1403   -0.9833    0.1099 C   0  0  0  0  0  0  0  0  0  0  0  0
   -4.4586   -1.4548    0.0858 C   0  0  0  0  0  0  0  0  0  0  0  0
   -5.4684   -0.5463   -0.2482 C   0  0  0  0  0  0  0  0  0  0  0  0
   -5.1742    0.7833   -0.5462 C   0  0  0  0  0  0  0  0  0  0  0  0
   -3.8546    1.2494   -0.5198 C   0  0  0  0  0  0  0  0  0  0  0  0
   -2.8192    0.3581   -0.1886 C   0  0  0  0  0  0  0  0  0  0  0  0
   -1.4273    0.4542   -0.0618 C   0  0  0  0  0  0  0  0  0  0  0  0
    2.2698    0.7338    0.2728 C   0  0  0  0  0  0  0  0  0  0  0  0
    2.8722    2.1283    1.1176 S   0  0  0  0  0  0  0  0  0  0  0  0
    4.5352    1.7656    0.7644 C   0  0  0  0  0  0  0  0  0  0  0  0
    4.5550    0.6486    0.0105 C   0  0  0  0  0  0  0  0  0  0  0  0
    5.4584   -0.2124   -0.6582 C   0  0  0  0  0  0  0  0  0  0  0  0
    4.6860   -1.2094   -1.2913 C   0  0  0  0  0  0  0  0  0  0  0  0
    3.3237   -1.0285   -1.0598 N   0  0  0  0  0  0  0  0  0  0  0  0
    3.3284    0.0868   -0.2689 C   0  0  0  0  0  0  0  0  0  0  0  0
   -0.3551    2.1983    0.5687 H   0  0  0  0  0  0  0  0  0  0  0  0
   -0.1684    1.7868   -1.1749 H   0  0  0  0  0  0  0  0  0  0  0  0
    1.0044   -1.7066    0.7602 H   0  0  0  0  0  0  0  0  0  0  0  0
   -1.8931   -2.6326    0.6649 H   0  0  0  0  0  0  0  0  0  0  0  0
   -4.6963   -2.4876    0.3181 H   0  0  0  0  0  0  0  0  0  0  0  0
   -6.5020   -0.8842   -0.2745 H   0  0  0  0  0  0  0  0  0  0  0  0
   -5.9783    1.4691   -0.8017 H   0  0  0  0  0  0  0  0  0  0  0  0
   -3.6362    2.2871   -0.7523 H   0  0  0  0  0  0  0  0  0  0  0  0
    5.3401    2.3940    1.1165 H   0  0  0  0  0  0  0  0  0  0  0  0
    6.5368   -0.1362   -0.7002 H   0  0  0  0  0  0  0  0  0  0  0  0
    5.0059   -2.0420   -1.9047 H   0  0  0  0  0  0  0  0  0  0  0  0
    2.5208   -1.5518   -1.3870 H   0  0  0  0  0  0  0  0  0  0  0  0
  1  2  1  0
  2  3  2  0
  3  4  1  0
  4  5  1  0
  5  6  1  0
  6  7  2  0
  7  8  1  0
  8  9  2  0
  9 10  1  0
 10 11  2  0
 11 12  1  0
  2 13  1  0
 13 14  1  0
 14 15  1  0
 15 16  2  0
 16 17  1  0
 17 18  2  0
 18 19  1  0
 19 20  1  0
 12  1  1  0
 20 13  2  0
 12  4  2  0
 20 16  1  0
 11  6  1  0
  1 21  1  0
  1 22  1  0
  3 23  1  0
  5 24  1  0
  7 25  1  0
  8 26  1  0
  9 27  1  0
 10 28  1  0
 15 29  1  0
 17 30  1  0
 18 31  1  0
 19 32  1  0
M  END
