
     RDKit          3D

 33 38  0  0  0  0  0  0  0  0999 V2000
    0.6172    0.2788   -0.3999 C   0  0  0  0  0  0  0  0  0  0  0  0
    1.4526   -0.2495    0.7752 C   0  0  0  0  0  0  0  0  0  0  0  0
    0.6375   -0.9060    1.6335 C   0  0  0  0  0  0  0  0  0  0  0  0
   -0.6972   -0.8623    1.1253 C   0  0  0  0  0  0  0  0  0  0  0  0
   -0.7506   -0.1880   -0.0455 C   0  0  0  0  0  0  0  0  0  0  0  0
   -2.0734   -0.1613   -0.5210 C   0  0  0  0  0  0  0  0  0  0  0  0
   -2.5695    0.4030   -1.6475 N   0  0  0  0  0  0  0  0  0  0  0  0
   -3.9343    0.1450   -1.6494 C   0  0  0  0  0  0  0  0  0  0  0  0
   -5.0457    0.4250   -2.4894 C   0  0  0  0  0  0  0  0  0  0  0  0
   -6.1926   -0.1123   -1.9429 C   0  0  0  0  0  0  0  0  0  0  0  0
   -5.9544   -0.9390   -0.4512 S   0  0  0  0  0  0  0  0  0  0  0  0
   -4.2675   -0.5773   -0.5221 C   0  0  0  0  0  0  0  0  0  0  0  0
   -3.0823   -0.7695    0.1918 C   0  0  0  0  0  0  0  0  0  0  0  0
   -2.3375   -1.5251    1.7262 Si  0  0  0  0  0  4  0  0  0  0  0  0
    2.8575   -0.0980    0.9725 C   0  0  0  0  0  0  0  0  0  0  0  0
    3.7253   -0.7444    2.3621 S   0  0  0  0  0  0  0  0  0  0  0  0
    5.2656   -0.1521    1.8483 C   0  0  0  0  0  0  0  0  0  0  0  0
    5.0813    0.4919    0.6850 C   0  0  0  0  0  0  0  0  0  0  0  0
    6.0434    1.1064   -0.0550 O   0  0  0  0  0  0  0  0  0  0  0  0
    5.2687    1.5701   -1.1013 C   0  0  0  0  0  0  0  0  0  0  0  0
    3.9093    1.2495   -0.9940 C   0  0  0  0  0  0  0  0  0  0  0  0
    3.7938    0.5252    0.2093 C   0  0  0  0  0  0  0  0  0  0  0  0
    0.9527   -0.1575   -1.3461 H   0  0  0  0  0  0  0  0  0  0  0  0
    0.6625    1.3712   -0.4525 H   0  0  0  0  0  0  0  0  0  0  0  0
    0.9084   -1.3947    2.5576 H   0  0  0  0  0  0  0  0  0  0  0  0
   -2.0891    0.9187   -2.3737 H   0  0  0  0  0  0  0  0  0  0  0  0
   -5.0137    0.9753   -3.4203 H   0  0  0  0  0  0  0  0  0  0  0  0
   -7.1930   -0.0639   -2.3506 H   0  0  0  0  0  0  0  0  0  0  0  0
   -2.3608   -3.0108    1.7497 H   0  0  0  0  0  0  0  0  0  0  0  0
   -2.7654   -0.8805    2.9949 H   0  0  0  0  0  0  0  0  0  0  0  0
    6.1827   -0.2996    2.3991 H   0  0  0  0  0  0  0  0  0  0  0  0
    5.8278    2.1142   -1.8516 H   0  0  0  0  0  0  0  0  0  0  0  0
    3.1404    1.5175   -1.7031 H   0  0  0  0  0  0  0  0  0  0  0  0
  1  2  1  0
  2  3  2  0
  3  4  1  0
  4  5  2  0
  5  6  1  0
  6  7  1  0
  7  8  1  0
  8  9  1  0
  9 10  2  0
 10 11  1  0
 11 12  1  0
 12 13  1  0
 13 14  1  0
  2 15  1  0
 15 16  1  0
 16 17  1  0
 17 18  2  0
 18 19  1  0
 19 20  1  0
 20 21  2  0
 21 22  1  0
  5  1  1  0
 13  6  2  0
 22 15  2  0
 14  4  1  0
 22 18  1  0
 12  8  2  0
  1 23  1  0
  1 24  1  0
  3 25  1  0
  7 26  1  0
  9 27  1  0
 10 28  1  0
 14 29  1  0
 14 30  1  0
 17 31  1  0
 20 32  1  0
 21 33  1  0
M  END
