
     RDKit          3D

 39 44  0  0  0  0  0  0  0  0999 V2000
    1.2741    0.3842    0.9807 Si  0  0  0  0  0  4  0  0  0  0  0  0
    0.0307   -0.5746   -0.0772 C   0  0  0  0  0  0  0  0  0  0  0  0
    0.6645   -1.3227   -1.0049 C   0  0  0  0  0  0  0  0  0  0  0  0
    2.1169   -1.2085   -1.0116 C   0  0  0  0  0  0  0  0  0  0  0  0
    2.6293   -0.3829   -0.0773 C   0  0  0  0  0  0  0  0  0  0  0  0
    3.9972   -0.1147    0.0943 C   0  0  0  0  0  0  0  0  0  0  0  0
    4.8965   -0.4675    1.5397 S   0  0  0  0  0  0  0  0  0  0  0  0
    6.3984    0.1140    0.8866 C   0  0  0  0  0  0  0  0  0  0  0  0
    6.1523    0.5547   -0.3633 C   0  0  0  0  0  0  0  0  0  0  0  0
    6.8042    1.1464   -1.4724 C   0  0  0  0  0  0  0  0  0  0  0  0
    5.8292    1.3259   -2.4767 C   0  0  0  0  0  0  0  0  0  0  0  0
    4.5771    0.8731   -2.0655 N   0  0  0  0  0  0  0  0  0  0  0  0
    4.8527    0.4296   -0.8016 C   0  0  0  0  0  0  0  0  0  0  0  0
   -1.3705   -0.5545    0.1096 C   0  0  0  0  0  0  0  0  0  0  0  0
   -2.2556    0.9301    0.3922 S   0  0  0  0  0  0  0  0  0  0  0  0
   -3.8135    0.1612    0.4570 C   0  0  0  0  0  0  0  0  0  0  0  0
   -5.0460    0.8779    0.6623 C   0  0  0  0  0  0  0  0  0  0  0  0
   -5.1968    2.1485    1.1973 C   0  0  0  0  0  0  0  0  0  0  0  0
   -6.5557    2.5789    1.2494 C   0  0  0  0  0  0  0  0  0  0  0  0
   -7.4113    1.6285    0.7458 C   0  0  0  0  0  0  0  0  0  0  0  0
   -6.5781    0.2345    0.2184 S   0  0  0  0  0  0  0  0  0  0  0  0
   -3.6078   -1.1618    0.2795 C   0  0  0  0  0  0  0  0  0  0  0  0
   -4.5400   -2.1579    0.2751 O   0  0  0  0  0  0  0  0  0  0  0  0
   -3.7260   -3.2517    0.0574 C   0  0  0  0  0  0  0  0  0  0  0  0
   -2.3679   -2.9397   -0.0600 C   0  0  0  0  0  0  0  0  0  0  0  0
   -2.2996   -1.5427    0.0899 C   0  0  0  0  0  0  0  0  0  0  0  0
    1.1687    1.8559    0.7937 H   0  0  0  0  0  0  0  0  0  0  0  0
    1.2916   -0.0944    2.3886 H   0  0  0  0  0  0  0  0  0  0  0  0
    0.1666   -1.9696   -1.7185 H   0  0  0  0  0  0  0  0  0  0  0  0
    2.7096   -1.7710   -1.7253 H   0  0  0  0  0  0  0  0  0  0  0  0
    7.3146    0.0908    1.4590 H   0  0  0  0  0  0  0  0  0  0  0  0
    7.8469    1.4224   -1.5575 H   0  0  0  0  0  0  0  0  0  0  0  0
    5.9307    1.7536   -3.4652 H   0  0  0  0  0  0  0  0  0  0  0  0
    3.6838    0.8653   -2.5436 H   0  0  0  0  0  0  0  0  0  0  0  0
   -4.3690    2.7553    1.5454 H   0  0  0  0  0  0  0  0  0  0  0  0
   -6.8847    3.5370    1.6340 H   0  0  0  0  0  0  0  0  0  0  0  0
   -8.4878    1.6835    0.6597 H   0  0  0  0  0  0  0  0  0  0  0  0
   -4.2600   -4.1922    0.0135 H   0  0  0  0  0  0  0  0  0  0  0  0
   -1.5653   -3.6447   -0.2215 H   0  0  0  0  0  0  0  0  0  0  0  0
  1  2  1  0
  2  3  2  0
  3  4  1  0
  4  5  2  0
  5  6  1  0
  6  7  1  0
  7  8  1  0
  8  9  2  0
  9 10  1  0
 10 11  2  0
 11 12  1  0
 12 13  1  0
  2 14  1  0
 14 15  1  0
 15 16  1  0
 16 17  1  0
 17 18  2  0
 18 19  1  0
 19 20  2  0
 20 21  1  0
 16 22  2  0
 22 23  1  0
 23 24  1  0
 24 25  2  0
 25 26  1  0
  5  1  1  0
 13  6  2  0
 26 14  2  0
 13  9  1  0
 21 17  1  0
 26 22  1  0
  1 27  1  0
  1 28  1  0
  3 29  1  0
  4 30  1  0
  8 31  1  0
 10 32  1  0
 11 33  1  0
 12 34  1  0
 18 35  1  0
 19 36  1  0
 20 37  1  0
 24 38  1  0
 25 39  1  0
M  END
