
     RDKit          3D

 47 54  0  0  0  0  0  0  0  0999 V2000
    1.5575    0.4919   -0.2823 C   0  0  0  0  0  0  0  0  0  0  0  0
    2.6693   -0.5397   -0.0568 C   0  0  0  0  0  0  0  0  0  0  0  0
    2.1595   -1.6989    0.4051 C   0  0  0  0  0  0  0  0  0  0  0  0
    0.7351   -1.5210    0.5000 C   0  0  0  0  0  0  0  0  0  0  0  0
    0.3034   -0.2497    0.1070 C   0  0  0  0  0  0  0  0  0  0  0  0
   -1.0905    0.1757    0.1163 C   0  0  0  0  0  0  0  0  0  0  0  0
   -1.5852    1.4747   -0.2231 C   0  0  0  0  0  0  0  0  0  0  0  0
   -0.7935    2.5399   -0.5961 C   0  0  0  0  0  0  0  0  0  0  0  0
   -1.6851    3.9675   -0.9146 S   0  0  0  0  0  0  0  0  0  0  0  0
   -3.1607    3.1831   -0.5638 C   0  0  0  0  0  0  0  0  0  0  0  0
   -2.9825    1.8620   -0.2090 C   0  0  0  0  0  0  0  0  0  0  0  0
   -4.0676    0.9994    0.0982 C   0  0  0  0  0  0  0  0  0  0  0  0
   -5.4379    1.3850    0.0693 C   0  0  0  0  0  0  0  0  0  0  0  0
   -6.4403    0.4565    0.3077 C   0  0  0  0  0  0  0  0  0  0  0  0
   -6.0905   -0.8593    0.5478 C   0  0  0  0  0  0  0  0  0  0  0  0
   -4.7391   -1.2348    0.5871 C   0  0  0  0  0  0  0  0  0  0  0  0
   -3.6595   -0.3319    0.4170 C   0  0  0  0  0  0  0  0  0  0  0  0
   -2.2154   -0.7104    0.5034 C   0  0  0  0  0  0  0  0  0  0  0  0
   -1.6652   -1.9660    0.9729 C   0  0  0  0  0  0  0  0  0  0  0  0
   -2.2938   -3.0036    1.6292 C   0  0  0  0  0  0  0  0  0  0  0  0
   -1.3658   -3.9929    1.8901 N   0  0  0  0  0  0  0  0  0  0  0  0
   -0.1206   -3.5876    1.4850 C   0  0  0  0  0  0  0  0  0  0  0  0
   -0.2747   -2.3341    0.9521 C   0  0  0  0  0  0  0  0  0  0  0  0
    4.0652   -0.3371   -0.2856 C   0  0  0  0  0  0  0  0  0  0  0  0
    5.2949   -1.5631   -0.0084 S   0  0  0  0  0  0  0  0  0  0  0  0
    6.6106   -0.5525   -0.5038 C   0  0  0  0  0  0  0  0  0  0  0  0
    6.0997    0.6422   -0.8528 C   0  0  0  0  0  0  0  0  0  0  0  0
    6.7949    1.7264   -1.3024 N   0  0  0  0  0  0  0  0  0  0  0  0
    5.7663    2.6446   -1.4979 C   0  0  0  0  0  0  0  0  0  0  0  0
    4.5098    2.0937   -1.1661 C   0  0  0  0  0  0  0  0  0  0  0  0
    4.7333    0.7566   -0.7353 C   0  0  0  0  0  0  0  0  0  0  0  0
    1.7220    1.3517    0.3746 H   0  0  0  0  0  0  0  0  0  0  0  0
    1.5260    0.7844   -1.3365 H   0  0  0  0  0  0  0  0  0  0  0  0
    2.6690   -2.6113    0.6657 H   0  0  0  0  0  0  0  0  0  0  0  0
    0.2731    2.6130   -0.7110 H   0  0  0  0  0  0  0  0  0  0  0  0
   -4.0729    3.7547   -0.6482 H   0  0  0  0  0  0  0  0  0  0  0  0
   -5.7319    2.4058   -0.1535 H   0  0  0  0  0  0  0  0  0  0  0  0
   -7.4846    0.7529    0.2764 H   0  0  0  0  0  0  0  0  0  0  0  0
   -6.8629   -1.6107    0.6923 H   0  0  0  0  0  0  0  0  0  0  0  0
   -4.5558   -2.2953    0.7019 H   0  0  0  0  0  0  0  0  0  0  0  0
   -3.2999   -3.1564    1.9843 H   0  0  0  0  0  0  0  0  0  0  0  0
   -1.5685   -4.8658    2.3600 H   0  0  0  0  0  0  0  0  0  0  0  0
    0.7481   -4.2117    1.6444 H   0  0  0  0  0  0  0  0  0  0  0  0
    7.6366   -0.8914   -0.5057 H   0  0  0  0  0  0  0  0  0  0  0  0
    7.7936    1.8119   -1.4461 H   0  0  0  0  0  0  0  0  0  0  0  0
    6.0094    3.6341   -1.8636 H   0  0  0  0  0  0  0  0  0  0  0  0
    3.5664    2.6175   -1.2371 H   0  0  0  0  0  0  0  0  0  0  0  0
  1  2  1  0
  2  3  2  0
  3  4  1  0
  4  5  2  0
  5  6  1  0
  6  7  1  0
  7  8  2  0
  8  9  1  0
  9 10  1  0
 10 11  2  0
 11 12  1  0
 12 13  2  0
 13 14  1  0
 14 15  2  0
 15 16  1  0
 16 17  2  0
 17 18  1  0
 18 19  1  0
 19 20  2  0
 20 21  1  0
 21 22  1  0
 22 23  2  0
  2 24  1  0
 24 25  1  0
 25 26  1  0
 26 27  2  0
 27 28  1  0
 28 29  1  0
 29 30  2  0
 30 31  1  0
  5  1  1  0
 18  6  2  0
 23 19  1  0
 31 24  2  0
 23  4  1  0
 31 27  1  0
 11  7  1  0
 17 12  1  0
  1 32  1  0
  1 33  1  0
  3 34  1  0
  8 35  1  0
 10 36  1  0
 13 37  1  0
 14 38  1  0
 15 39  1  0
 16 40  1  0
 20 41  1  0
 21 42  1  0
 22 43  1  0
 26 44  1  0
 28 45  1  0
 29 46  1  0
 30 47  1  0
M  END
