
     RDKit          3D

 40 46  0  0  0  0  0  0  0  0999 V2000
    0.7883   -0.6236   -0.1220 C   0  0  0  0  0  0  0  0  0  0  0  0
    1.5369    0.6969   -0.1740 C   0  0  0  0  0  0  0  0  0  0  0  0
    0.6340    1.6938   -0.0946 C   0  0  0  0  0  0  0  0  0  0  0  0
   -0.7074    1.1599    0.0103 C   0  0  0  0  0  0  0  0  0  0  0  0
   -0.6405   -0.1865   -0.0038 C   0  0  0  0  0  0  0  0  0  0  0  0
   -1.8319   -1.0407    0.0866 C   0  0  0  0  0  0  0  0  0  0  0  0
   -1.7462   -2.4633    0.0706 C   0  0  0  0  0  0  0  0  0  0  0  0
   -0.6396   -3.2242   -0.0231 N   0  0  0  0  0  0  0  0  0  0  0  0
   -1.1283   -4.8068    0.0060 S   0  0  0  0  0  0  0  0  0  0  0  0
   -2.7700   -4.6214    0.1390 N   0  0  0  0  0  0  0  0  0  0  0  0
   -3.0023   -3.3003    0.1661 C   0  0  0  0  0  0  0  0  0  0  0  0
   -4.2772   -2.7004    0.2724 C   0  0  0  0  0  0  0  0  0  0  0  0
   -4.3092   -1.2943    0.2840 C   0  0  0  0  0  0  0  0  0  0  0  0
   -3.1477   -0.4797    0.1960 C   0  0  0  0  0  0  0  0  0  0  0  0
   -3.2355    1.0109    0.2127 C   0  0  0  0  0  0  0  0  0  0  0  0
   -4.3629    1.7480    0.3081 C   0  0  0  0  0  0  0  0  0  0  0  0
   -3.9840    3.5841    0.2897 Si  0  0  0  0  0  4  0  0  0  0  0  0
   -2.1772    3.1538    0.1416 C   0  0  0  0  0  0  0  0  0  0  0  0
   -1.9906    1.8192    0.1179 C   0  0  0  0  0  0  0  0  0  0  0  0
    2.9433    0.8949   -0.2868 C   0  0  0  0  0  0  0  0  0  0  0  0
    3.7133    2.4734   -0.3377 S   0  0  0  0  0  0  0  0  0  0  0  0
    5.3190    1.8375   -0.4731 C   0  0  0  0  0  0  0  0  0  0  0  0
    5.2284    0.4949   -0.4756 C   0  0  0  0  0  0  0  0  0  0  0  0
    6.2595   -0.3935   -0.5661 N   0  0  0  0  0  0  0  0  0  0  0  0
    5.5760   -1.6063   -0.5195 C   0  0  0  0  0  0  0  0  0  0  0  0
    4.1825   -1.4121   -0.4046 C   0  0  0  0  0  0  0  0  0  0  0  0
    3.9521   -0.0093   -0.3755 C   0  0  0  0  0  0  0  0  0  0  0  0
    0.9590   -1.1931   -1.0416 H   0  0  0  0  0  0  0  0  0  0  0  0
    1.1038   -1.2045    0.7511 H   0  0  0  0  0  0  0  0  0  0  0  0
    0.8326    2.7545   -0.1039 H   0  0  0  0  0  0  0  0  0  0  0  0
   -5.1790   -3.2972    0.3409 H   0  0  0  0  0  0  0  0  0  0  0  0
   -5.2900   -0.8282    0.3657 H   0  0  0  0  0  0  0  0  0  0  0  0
   -5.3832    1.4135    0.3879 H   0  0  0  0  0  0  0  0  0  0  0  0
   -4.5165    4.2513   -0.9224 H   0  0  0  0  0  0  0  0  0  0  0  0
   -4.3154    4.2349    1.5798 H   0  0  0  0  0  0  0  0  0  0  0  0
   -1.4224    3.9216    0.0860 H   0  0  0  0  0  0  0  0  0  0  0  0
    6.1923    2.4703   -0.5395 H   0  0  0  0  0  0  0  0  0  0  0  0
    7.2493   -0.1955   -0.6453 H   0  0  0  0  0  0  0  0  0  0  0  0
    6.1402   -2.5287   -0.5723 H   0  0  0  0  0  0  0  0  0  0  0  0
    3.4466   -2.2034   -0.3506 H   0  0  0  0  0  0  0  0  0  0  0  0
  1  2  1  0
  2  3  2  0
  3  4  1  0
  4  5  2  0
  5  6  1  0
  6  7  1  0
  7  8  2  0
  8  9  1  0
  9 10  1  0
 10 11  2  0
 11 12  1  0
 12 13  2  0
 13 14  1  0
 14 15  1  0
 15 16  2  0
 16 17  1  0
 17 18  1  0
 18 19  2  0
  2 20  1  0
 20 21  1  0
 21 22  1  0
 22 23  2  0
 23 24  1  0
 24 25  1  0
 25 26  2  0
 26 27  1  0
  5  1  1  0
 14  6  2  0
 19 15  1  0
 27 20  2  0
 19  4  1  0
 27 23  1  0
 11  7  1  0
  1 28  1  0
  1 29  1  0
  3 30  1  0
 12 31  1  0
 13 32  1  0
 16 33  1  0
 17 34  1  0
 17 35  1  0
 18 36  1  0
 22 37  1  0
 24 38  1  0
 25 39  1  0
 26 40  1  0
M  END
