
     RDKit          3D

 44 50  0  0  0  0  0  0  0  0999 V2000
    2.0745    0.4984    0.1319 C   0  0  0  0  0  0  0  0  0  0  0  0
    3.4756   -0.1236   -0.0010 C   0  0  0  0  0  0  0  0  0  0  0  0
    3.3992   -1.4378   -0.3057 C   0  0  0  0  0  0  0  0  0  0  0  0
    2.0039   -1.7719   -0.3940 C   0  0  0  0  0  0  0  0  0  0  0  0
    1.1621   -0.6698   -0.1457 C   0  0  0  0  0  0  0  0  0  0  0  0
   -0.2749   -0.7037   -0.1650 C   0  0  0  0  0  0  0  0  0  0  0  0
   -1.0505    0.4398    0.0933 C   0  0  0  0  0  0  0  0  0  0  0  0
   -2.4577    0.4030    0.0736 C   0  0  0  0  0  0  0  0  0  0  0  0
   -3.1315   -0.8142   -0.2134 C   0  0  0  0  0  0  0  0  0  0  0  0
   -4.6117   -0.8882   -0.2423 C   0  0  0  0  0  0  0  0  0  0  0  0
   -5.3810    0.1865    0.0002 C   0  0  0  0  0  0  0  0  0  0  0  0
   -4.7695    1.4613    0.2999 C   0  0  0  0  0  0  0  0  0  0  0  0
   -5.4592    2.5892    0.5553 C   0  0  0  0  0  0  0  0  0  0  0  0
   -4.3044    4.0167    0.8947 Si  0  0  0  0  0  4  0  0  0  0  0  0
   -2.8647    2.8436    0.6348 C   0  0  0  0  0  0  0  0  0  0  0  0
   -3.2962    1.5981    0.3433 C   0  0  0  0  0  0  0  0  0  0  0  0
   -2.3927   -1.9717   -0.4753 C   0  0  0  0  0  0  0  0  0  0  0  0
   -0.9827   -1.9229   -0.4528 C   0  0  0  0  0  0  0  0  0  0  0  0
   -0.1047   -3.0150   -0.6985 C   0  0  0  0  0  0  0  0  0  0  0  0
   -0.4044   -4.3179   -1.0024 C   0  0  0  0  0  0  0  0  0  0  0  0
    0.7527   -5.0357   -1.1593 O   0  0  0  0  0  0  0  0  0  0  0  0
    1.8038   -4.1818   -0.9533 C   0  0  0  0  0  0  0  0  0  0  0  0
    1.3208   -2.9353   -0.6687 C   0  0  0  0  0  0  0  0  0  0  0  0
    4.7195    0.5709    0.1697 C   0  0  0  0  0  0  0  0  0  0  0  0
    4.8932    1.9124    0.4840 C   0  0  0  0  0  0  0  0  0  0  0  0
    6.2595    2.3043    0.5847 C   0  0  0  0  0  0  0  0  0  0  0  0
    7.1098    1.2528    0.3449 C   0  0  0  0  0  0  0  0  0  0  0  0
    6.2630   -0.1872    0.0031 S   0  0  0  0  0  0  0  0  0  0  0  0
    1.9317    1.2886   -0.6121 H   0  0  0  0  0  0  0  0  0  0  0  0
    1.9177    0.8819    1.1452 H   0  0  0  0  0  0  0  0  0  0  0  0
    4.1958   -2.1461   -0.4631 H   0  0  0  0  0  0  0  0  0  0  0  0
   -0.5494    1.3776    0.3142 H   0  0  0  0  0  0  0  0  0  0  0  0
   -5.0703   -1.8454   -0.4675 H   0  0  0  0  0  0  0  0  0  0  0  0
   -6.4629    0.1125   -0.0256 H   0  0  0  0  0  0  0  0  0  0  0  0
   -6.5302    2.7120    0.5751 H   0  0  0  0  0  0  0  0  0  0  0  0
   -4.3695    5.0656   -0.1513 H   0  0  0  0  0  0  0  0  0  0  0  0
   -4.3890    4.5001    2.2938 H   0  0  0  0  0  0  0  0  0  0  0  0
   -1.8527    3.1997    0.7253 H   0  0  0  0  0  0  0  0  0  0  0  0
   -2.9001   -2.9063   -0.6956 H   0  0  0  0  0  0  0  0  0  0  0  0
   -1.3163   -4.8808   -1.1399 H   0  0  0  0  0  0  0  0  0  0  0  0
    2.7870   -4.6202   -1.0469 H   0  0  0  0  0  0  0  0  0  0  0  0
    4.0671    2.5960    0.6380 H   0  0  0  0  0  0  0  0  0  0  0  0
    6.5981    3.3056    0.8207 H   0  0  0  0  0  0  0  0  0  0  0  0
    8.1911    1.2591    0.3536 H   0  0  0  0  0  0  0  0  0  0  0  0
  1  2  1  0
  2  3  2  0
  3  4  1  0
  4  5  2  0
  5  6  1  0
  6  7  2  0
  7  8  1  0
  8  9  2  0
  9 10  1  0
 10 11  2  0
 11 12  1  0
 12 13  2  0
 13 14  1  0
 14 15  1  0
 15 16  2  0
  9 17  1  0
 17 18  2  0
 18 19  1  0
 19 20  2  0
 20 21  1  0
 21 22  1  0
 22 23  2  0
  2 24  1  0
 24 25  2  0
 25 26  1  0
 26 27  2  0
 27 28  1  0
  5  1  1  0
 18  6  1  0
 23 19  1  0
 28 24  1  0
 23  4  1  0
 16  8  1  0
 16 12  1  0
  1 29  1  0
  1 30  1  0
  3 31  1  0
  7 32  1  0
 10 33  1  0
 11 34  1  0
 13 35  1  0
 14 36  1  0
 14 37  1  0
 15 38  1  0
 17 39  1  0
 20 40  1  0
 22 41  1  0
 25 42  1  0
 26 43  1  0
 27 44  1  0
M  END
