
     RDKit          3D

 45 51  0  0  0  0  0  0  0  0999 V2000
    2.4091    0.6399    0.7676 Si  0  0  0  0  0  4  0  0  0  0  0  0
    1.1383   -0.7073    0.3832 C   0  0  0  0  0  0  0  0  0  0  0  0
    1.7536   -1.8835    0.1358 C   0  0  0  0  0  0  0  0  0  0  0  0
    3.2092   -1.8594    0.2091 C   0  0  0  0  0  0  0  0  0  0  0  0
    3.7440   -0.6602    0.5108 C   0  0  0  0  0  0  0  0  0  0  0  0
    5.1177   -0.4110    0.6711 C   0  0  0  0  0  0  0  0  0  0  0  0
    6.0561   -1.0770    1.9621 S   0  0  0  0  0  0  0  0  0  0  0  0
    7.5067   -0.3114    1.4382 C   0  0  0  0  0  0  0  0  0  0  0  0
    7.2250    0.3923    0.3199 C   0  0  0  0  0  0  0  0  0  0  0  0
    8.0111    1.1958   -0.5399 C   0  0  0  0  0  0  0  0  0  0  0  0
    7.2687    1.7249   -1.6016 C   0  0  0  0  0  0  0  0  0  0  0  0
    5.5641    1.2955   -1.6526 S   0  0  0  0  0  0  0  0  0  0  0  0
    5.9088    0.3599   -0.1425 C   0  0  0  0  0  0  0  0  0  0  0  0
   -0.2657   -0.5275    0.3950 C   0  0  0  0  0  0  0  0  0  0  0  0
   -1.0332    0.9580   -0.1518 S   0  0  0  0  0  0  0  0  0  0  0  0
   -2.6355    0.3887    0.1290 C   0  0  0  0  0  0  0  0  0  0  0  0
   -3.8088    1.1828   -0.1365 C   0  0  0  0  0  0  0  0  0  0  0  0
   -4.1609    2.3356    0.6055 C   0  0  0  0  0  0  0  0  0  0  0  0
   -5.3391    3.1121    0.3597 C   0  0  0  0  0  0  0  0  0  0  0  0
   -6.2816    2.8180   -0.6495 C   0  0  0  0  0  0  0  0  0  0  0  0
   -5.9257    1.6853   -1.3825 C   0  0  0  0  0  0  0  0  0  0  0  0
   -6.6875    1.2122   -2.4219 C   0  0  0  0  0  0  0  0  0  0  0  0
   -5.9769   -0.1836   -3.1290 S   0  0  0  0  0  0  0  0  0  0  0  0
   -4.6427   -0.1479   -2.0438 C   0  0  0  0  0  0  0  0  0  0  0  0
   -4.7415    0.8922   -1.1477 C   0  0  0  0  0  0  0  0  0  0  0  0
   -2.5606   -0.8614    0.6271 C   0  0  0  0  0  0  0  0  0  0  0  0
   -3.5932   -1.6723    1.0058 N   0  0  0  0  0  0  0  0  0  0  0  0
   -2.9076   -2.8081    1.4278 C   0  0  0  0  0  0  0  0  0  0  0  0
   -1.5116   -2.6487    1.2983 C   0  0  0  0  0  0  0  0  0  0  0  0
   -1.2809   -1.3522    0.7626 C   0  0  0  0  0  0  0  0  0  0  0  0
    2.3344    1.1083    2.1771 H   0  0  0  0  0  0  0  0  0  0  0  0
    2.4369    1.7149   -0.2583 H   0  0  0  0  0  0  0  0  0  0  0  0
    1.2406   -2.8065   -0.1070 H   0  0  0  0  0  0  0  0  0  0  0  0
    3.7837   -2.7613    0.0336 H   0  0  0  0  0  0  0  0  0  0  0  0
    8.4382   -0.4355    1.9718 H   0  0  0  0  0  0  0  0  0  0  0  0
    9.0689    1.3928   -0.4158 H   0  0  0  0  0  0  0  0  0  0  0  0
    7.6362    2.3654   -2.3919 H   0  0  0  0  0  0  0  0  0  0  0  0
   -3.5052    2.6554    1.4169 H   0  0  0  0  0  0  0  0  0  0  0  0
   -5.5155    3.9833    0.9922 H   0  0  0  0  0  0  0  0  0  0  0  0
   -7.1646    3.4204   -0.8187 H   0  0  0  0  0  0  0  0  0  0  0  0
   -7.6167    1.6011   -2.8152 H   0  0  0  0  0  0  0  0  0  0  0  0
   -3.8664   -0.8956   -2.1378 H   0  0  0  0  0  0  0  0  0  0  0  0
   -4.5854   -1.4677    0.9741 H   0  0  0  0  0  0  0  0  0  0  0  0
   -3.4728   -3.6537    1.7984 H   0  0  0  0  0  0  0  0  0  0  0  0
   -0.7719   -3.3893    1.5715 H   0  0  0  0  0  0  0  0  0  0  0  0
  1  2  1  0
  2  3  2  0
  3  4  1  0
  4  5  2  0
  5  6  1  0
  6  7  1  0
  7  8  1  0
  8  9  2  0
  9 10  1  0
 10 11  2  0
 11 12  1  0
 12 13  1  0
  2 14  1  0
 14 15  1  0
 15 16  1  0
 16 17  1  0
 17 18  2  0
 18 19  1  0
 19 20  2  0
 20 21  1  0
 21 22  2  0
 22 23  1  0
 23 24  1  0
 24 25  2  0
 16 26  2  0
 26 27  1  0
 27 28  1  0
 28 29  2  0
 29 30  1  0
  5  1  1  0
 13  6  2  0
 30 14  2  0
 13  9  1  0
 25 17  1  0
 30 26  1  0
 25 21  1  0
  1 31  1  0
  1 32  1  0
  3 33  1  0
  4 34  1  0
  8 35  1  0
 10 36  1  0
 11 37  1  0
 18 38  1  0
 19 39  1  0
 20 40  1  0
 22 41  1  0
 24 42  1  0
 27 43  1  0
 28 44  1  0
 29 45  1  0
M  END
