
     RDKit          3D

 33 37  0  0  0  0  0  0  0  0999 V2000
    0.5443    0.7799   -0.1562 C   0  0  0  0  0  0  0  0  0  0  0  0
    1.5757   -0.3390   -0.0255 C   0  0  0  0  0  0  0  0  0  0  0  0
    0.9954   -1.5402    0.1616 C   0  0  0  0  0  0  0  0  0  0  0  0
   -0.4340   -1.3286    0.1625 C   0  0  0  0  0  0  0  0  0  0  0  0
   -0.7575    0.0259   -0.0271 C   0  0  0  0  0  0  0  0  0  0  0  0
   -2.0797    0.5219   -0.0738 C   0  0  0  0  0  0  0  0  0  0  0  0
   -2.3610    1.8857   -0.2655 C   0  0  0  0  0  0  0  0  0  0  0  0
   -3.6789    2.3542   -0.3079 C   0  0  0  0  0  0  0  0  0  0  0  0
   -4.7483    1.4734   -0.1601 C   0  0  0  0  0  0  0  0  0  0  0  0
   -4.5099    0.1146    0.0315 C   0  0  0  0  0  0  0  0  0  0  0  0
   -3.1871   -0.3717    0.0763 C   0  0  0  0  0  0  0  0  0  0  0  0
   -2.8977   -1.7759    0.2731 C   0  0  0  0  0  0  0  0  0  0  0  0
   -3.7873   -2.7735    0.4338 N   0  0  0  0  0  0  0  0  0  0  0  0
   -2.9100   -4.1710    0.6174 S   0  0  0  0  0  0  0  0  0  0  0  0
   -1.3586   -3.5911    0.5042 N   0  0  0  0  0  0  0  0  0  0  0  0
   -1.4655   -2.2661    0.3165 C   0  0  0  0  0  0  0  0  0  0  0  0
    2.9954   -0.1146   -0.1126 C   0  0  0  0  0  0  0  0  0  0  0  0
    3.9294   -0.9469   -0.6235 C   0  0  0  0  0  0  0  0  0  0  0  0
    5.2990   -0.4550   -0.6088 C   0  0  0  0  0  0  0  0  0  0  0  0
    5.4643    0.7757   -0.0927 C   0  0  0  0  0  0  0  0  0  0  0  0
    3.8301    1.4979    0.4723 Si  0  0  0  0  0  4  0  0  0  0  0  0
    0.6150    1.2659   -1.1347 H   0  0  0  0  0  0  0  0  0  0  0  0
    0.6369    1.5096    0.6541 H   0  0  0  0  0  0  0  0  0  0  0  0
    1.4677   -2.5019    0.2857 H   0  0  0  0  0  0  0  0  0  0  0  0
   -1.5561    2.6074   -0.3862 H   0  0  0  0  0  0  0  0  0  0  0  0
   -3.8701    3.4144   -0.4579 H   0  0  0  0  0  0  0  0  0  0  0  0
   -5.7693    1.8455   -0.1944 H   0  0  0  0  0  0  0  0  0  0  0  0
   -5.3506   -0.5669    0.1458 H   0  0  0  0  0  0  0  0  0  0  0  0
    3.7110   -1.9239   -1.0388 H   0  0  0  0  0  0  0  0  0  0  0  0
    6.1095   -1.0606   -0.9962 H   0  0  0  0  0  0  0  0  0  0  0  0
    6.3917    1.3168    0.0082 H   0  0  0  0  0  0  0  0  0  0  0  0
    3.7565    1.6734    1.9440 H   0  0  0  0  0  0  0  0  0  0  0  0
    3.3998    2.6647   -0.3392 H   0  0  0  0  0  0  0  0  0  0  0  0
  1  2  1  0
  2  3  2  0
  3  4  1  0
  4  5  2  0
  5  6  1  0
  6  7  2  0
  7  8  1  0
  8  9  2  0
  9 10  1  0
 10 11  2  0
 11 12  1  0
 12 13  2  0
 13 14  1  0
 14 15  1  0
 15 16  2  0
  2 17  1  0
 17 18  2  0
 18 19  1  0
 19 20  2  0
 20 21  1  0
  5  1  1  0
 11  6  1  0
 16 12  1  0
 21 17  1  0
 16  4  1  0
  1 22  1  0
  1 23  1  0
  3 24  1  0
  7 25  1  0
  8 26  1  0
  9 27  1  0
 10 28  1  0
 18 29  1  0
 19 30  1  0
 20 31  1  0
 21 32  1  0
 21 33  1  0
M  END
