
     RDKit          3D

 38 43  0  0  0  0  0  0  0  0999 V2000
    1.7540    1.1571   -0.1740 C   0  0  0  0  0  0  0  0  0  0  0  0
    2.7359    0.0228   -0.0793 C   0  0  0  0  0  0  0  0  0  0  0  0
    2.0760   -1.1347    0.1037 C   0  0  0  0  0  0  0  0  0  0  0  0
    0.6515   -0.8832    0.1453 C   0  0  0  0  0  0  0  0  0  0  0  0
    0.4430    0.4400   -0.0138 C   0  0  0  0  0  0  0  0  0  0  0  0
   -0.8951    1.0510   -0.0228 C   0  0  0  0  0  0  0  0  0  0  0  0
   -1.0672    2.4215   -0.1899 C   0  0  0  0  0  0  0  0  0  0  0  0
   -2.2456    3.0760   -0.2128 N   0  0  0  0  0  0  0  0  0  0  0  0
   -3.3357    2.2912   -0.0554 C   0  0  0  0  0  0  0  0  0  0  0  0
   -4.6912    2.6937   -0.0367 C   0  0  0  0  0  0  0  0  0  0  0  0
   -5.4499    1.5631    0.1480 C   0  0  0  0  0  0  0  0  0  0  0  0
   -4.5918    0.4969    0.2403 N   0  0  0  0  0  0  0  0  0  0  0  0
   -3.2821    0.9046    0.1200 C   0  0  0  0  0  0  0  0  0  0  0  0
   -2.0463    0.2356    0.1417 C   0  0  0  0  0  0  0  0  0  0  0  0
   -1.8675   -1.2318    0.3209 C   0  0  0  0  0  0  0  0  0  0  0  0
   -2.8065   -2.1871    0.4924 C   0  0  0  0  0  0  0  0  0  0  0  0
   -2.0422   -3.8962    0.6723 Si  0  0  0  0  0  4  0  0  0  0  0  0
   -0.3734   -3.1081    0.4844 C   0  0  0  0  0  0  0  0  0  0  0  0
   -0.4744   -1.7746    0.3183 C   0  0  0  0  0  0  0  0  0  0  0  0
    4.1729    0.2313   -0.1807 C   0  0  0  0  0  0  0  0  0  0  0  0
    4.5945    1.4842   -0.3634 N   0  0  0  0  0  0  0  0  0  0  0  0
    5.9164    1.6112   -0.4483 C   0  0  0  0  0  0  0  0  0  0  0  0
    6.8058    0.6252   -0.3681 N   0  0  0  0  0  0  0  0  0  0  0  0
    6.2626   -0.5755   -0.1858 C   0  0  0  0  0  0  0  0  0  0  0  0
    4.9632   -0.8406   -0.0842 N   0  0  0  0  0  0  0  0  0  0  0  0
    1.8150    1.6555   -1.1475 H   0  0  0  0  0  0  0  0  0  0  0  0
    1.9073    1.8839    0.6310 H   0  0  0  0  0  0  0  0  0  0  0  0
    2.5237   -2.1118    0.2059 H   0  0  0  0  0  0  0  0  0  0  0  0
   -0.2121    3.0803   -0.3189 H   0  0  0  0  0  0  0  0  0  0  0  0
   -5.0592    3.7040   -0.1473 H   0  0  0  0  0  0  0  0  0  0  0  0
   -6.5201    1.4234    0.2215 H   0  0  0  0  0  0  0  0  0  0  0  0
   -4.8946   -0.4531    0.3781 H   0  0  0  0  0  0  0  0  0  0  0  0
   -3.8741   -2.1146    0.5386 H   0  0  0  0  0  0  0  0  0  0  0  0
   -2.4003   -4.7805   -0.4622 H   0  0  0  0  0  0  0  0  0  0  0  0
   -2.2712   -4.4612    2.0234 H   0  0  0  0  0  0  0  0  0  0  0  0
    0.5304   -3.6954    0.5129 H   0  0  0  0  0  0  0  0  0  0  0  0
    6.3053    2.6129   -0.5971 H   0  0  0  0  0  0  0  0  0  0  0  0
    6.9429   -1.4172   -0.1131 H   0  0  0  0  0  0  0  0  0  0  0  0
  1  2  1  0
  2  3  2  0
  3  4  1  0
  4  5  2  0
  5  6  1  0
  6  7  2  0
  7  8  1  0
  8  9  2  0
  9 10  1  0
 10 11  2  0
 11 12  1  0
 12 13  1  0
 13 14  2  0
 14 15  1  0
 15 16  2  0
 16 17  1  0
 17 18  1  0
 18 19  2  0
  2 20  1  0
 20 21  2  0
 21 22  1  0
 22 23  2  0
 23 24  1  0
 24 25  2  0
  5  1  1  0
 14  6  1  0
 19 15  1  0
 25 20  1  0
 19  4  1  0
 13  9  1  0
  1 26  1  0
  1 27  1  0
  3 28  1  0
  7 29  1  0
 10 30  1  0
 11 31  1  0
 12 32  1  0
 16 33  1  0
 17 34  1  0
 17 35  1  0
 18 36  1  0
 22 37  1  0
 24 38  1  0
M  END
