
     RDKit          3D

 44 51  0  0  0  0  0  0  0  0999 V2000
    1.1137   -0.5443    1.3420 C   0  0  0  0  0  0  0  0  0  0  0  0
    2.3060   -0.0214    0.5329 C   0  0  0  0  0  0  0  0  0  0  0  0
    1.9065    0.6660   -0.5597 C   0  0  0  0  0  0  0  0  0  0  0  0
    0.4622    0.6447   -0.5816 C   0  0  0  0  0  0  0  0  0  0  0  0
   -0.0433   -0.0583    0.5159 C   0  0  0  0  0  0  0  0  0  0  0  0
   -1.4218   -0.2030    0.6736 C   0  0  0  0  0  0  0  0  0  0  0  0
   -2.0403   -0.9053    1.6711 O   0  0  0  0  0  0  0  0  0  0  0  0
   -3.3906   -0.7755    1.4778 C   0  0  0  0  0  0  0  0  0  0  0  0
   -4.3735   -1.3774    2.2888 C   0  0  0  0  0  0  0  0  0  0  0  0
   -5.7339   -1.1387    2.0295 C   0  0  0  0  0  0  0  0  0  0  0  0
   -5.9530   -0.2425    0.9831 C   0  0  0  0  0  0  0  0  0  0  0  0
   -7.2263    0.1652    0.6542 C   0  0  0  0  0  0  0  0  0  0  0  0
   -7.2154    1.3542   -0.5936 S   0  0  0  0  0  0  0  0  0  0  0  0
   -5.4933    1.3352   -0.6981 C   0  0  0  0  0  0  0  0  0  0  0  0
   -4.9895    0.3940    0.1495 C   0  0  0  0  0  0  0  0  0  0  0  0
   -3.6186    0.0492    0.3819 C   0  0  0  0  0  0  0  0  0  0  0  0
   -2.3844    0.3357   -0.1801 C   0  0  0  0  0  0  0  0  0  0  0  0
   -1.8923    0.9902   -1.3704 C   0  0  0  0  0  0  0  0  0  0  0  0
   -2.5979    1.4097   -2.4586 C   0  0  0  0  0  0  0  0  0  0  0  0
   -1.5299    2.1238   -3.6107 S   0  0  0  0  0  0  0  0  0  0  0  0
   -0.1376    1.7650   -2.6591 C   0  0  0  0  0  0  0  0  0  0  0  0
   -0.4720    1.1228   -1.4891 C   0  0  0  0  0  0  0  0  0  0  0  0
    3.6933   -0.1735    0.8318 C   0  0  0  0  0  0  0  0  0  0  0  0
    4.2229   -0.0007    2.4872 S   0  0  0  0  0  0  0  0  0  0  0  0
    5.8804   -0.2627    2.1052 C   0  0  0  0  0  0  0  0  0  0  0  0
    6.0037   -0.4939    0.7721 C   0  0  0  0  0  0  0  0  0  0  0  0
    7.4218   -0.8813   -0.4028 Si  0  0  0  0  0  4  0  0  0  0  0  0
    6.1420   -0.9809   -1.8163 C   0  0  0  0  0  0  0  0  0  0  0  0
    4.8904   -0.7391   -1.3681 C   0  0  0  0  0  0  0  0  0  0  0  0
    4.7860   -0.4596    0.0375 C   0  0  0  0  0  0  0  0  0  0  0  0
    1.0809   -0.1053    2.3435 H   0  0  0  0  0  0  0  0  0  0  0  0
    1.1242   -1.6371    1.3959 H   0  0  0  0  0  0  0  0  0  0  0  0
    2.5233    1.1623   -1.2910 H   0  0  0  0  0  0  0  0  0  0  0  0
   -4.0737   -2.0193    3.1119 H   0  0  0  0  0  0  0  0  0  0  0  0
   -6.5166   -1.5827    2.6331 H   0  0  0  0  0  0  0  0  0  0  0  0
   -8.1692   -0.1403    1.0870 H   0  0  0  0  0  0  0  0  0  0  0  0
   -5.0066    2.0449   -1.3442 H   0  0  0  0  0  0  0  0  0  0  0  0
   -3.6425    1.3279   -2.7039 H   0  0  0  0  0  0  0  0  0  0  0  0
    0.8411    2.0282   -3.0359 H   0  0  0  0  0  0  0  0  0  0  0  0
    6.6364   -0.2380    2.8782 H   0  0  0  0  0  0  0  0  0  0  0  0
    8.0602   -2.2003   -0.1681 H   0  0  0  0  0  0  0  0  0  0  0  0
    8.3600    0.2492   -0.6135 H   0  0  0  0  0  0  0  0  0  0  0  0
    6.4452   -1.2182   -2.8232 H   0  0  0  0  0  0  0  0  0  0  0  0
    4.0222   -0.7689   -2.0157 H   0  0  0  0  0  0  0  0  0  0  0  0
  1  2  1  0
  2  3  2  0
  3  4  1  0
  4  5  2  0
  5  6  1  0
  6  7  1  0
  7  8  1  0
  8  9  1  0
  9 10  2  0
 10 11  1  0
 11 12  2  0
 12 13  1  0
 13 14  1  0
 14 15  2  0
 15 16  1  0
 16 17  1  0
 17 18  1  0
 18 19  2  0
 19 20  1  0
 20 21  1  0
 21 22  2  0
  2 23  1  0
 23 24  1  0
 24 25  1  0
 25 26  2  0
 26 27  1  0
 27 28  1  0
 28 29  2  0
 29 30  1  0
  5  1  1  0
 17  6  2  0
 22 18  1  0
 30 23  2  0
 22  4  1  0
 30 26  1  0
 16  8  2  0
 15 11  1  0
  1 31  1  0
  1 32  1  0
  3 33  1  0
  9 34  1  0
 10 35  1  0
 12 36  1  0
 14 37  1  0
 19 38  1  0
 21 39  1  0
 25 40  1  0
 27 41  1  0
 27 42  1  0
 28 43  1  0
 29 44  1  0
M  END
