
     RDKit          3D

 35 39  0  0  0  0  0  0  0  0999 V2000
   -1.3232   -0.6253    1.3278 Si  0  0  0  0  0  4  0  0  0  0  0  0
    0.0376    0.3683    0.4700 C   0  0  0  0  0  0  0  0  0  0  0  0
   -0.4919    1.2161   -0.4366 C   0  0  0  0  0  0  0  0  0  0  0  0
   -1.9449    1.1803   -0.5524 C   0  0  0  0  0  0  0  0  0  0  0  0
   -2.5690    0.3113    0.2690 C   0  0  0  0  0  0  0  0  0  0  0  0
   -3.9661    0.0962    0.2946 C   0  0  0  0  0  0  0  0  0  0  0  0
   -4.8634    0.0672    1.7850 S   0  0  0  0  0  0  0  0  0  0  0  0
   -6.3757   -0.1933    1.0082 C   0  0  0  0  0  0  0  0  0  0  0  0
   -6.2094   -0.2556   -0.3434 C   0  0  0  0  0  0  0  0  0  0  0  0
   -7.4026   -0.5095   -1.6678 S   0  0  0  0  0  0  0  0  0  0  0  0
   -6.0108   -0.3940   -2.7358 C   0  0  0  0  0  0  0  0  0  0  0  0
   -4.7725   -0.1812   -2.1186 C   0  0  0  0  0  0  0  0  0  0  0  0
   -4.8730   -0.0899   -0.7031 C   0  0  0  0  0  0  0  0  0  0  0  0
    1.4166    0.2189    0.7652 C   0  0  0  0  0  0  0  0  0  0  0  0
    2.0416    0.0453    1.9895 C   0  0  0  0  0  0  0  0  0  0  0  0
    3.4591   -0.0823    1.8863 C   0  0  0  0  0  0  0  0  0  0  0  0
    3.9026   -0.0065    0.5826 C   0  0  0  0  0  0  0  0  0  0  0  0
    2.5949    0.2194   -0.4960 S   0  0  0  0  0  0  0  0  0  0  0  0
    5.2585   -0.0938    0.1059 C   0  0  0  0  0  0  0  0  0  0  0  0
    6.4280   -0.2719    0.8320 C   0  0  0  0  0  0  0  0  0  0  0  0
    7.5038   -0.2923   -0.0890 C   0  0  0  0  0  0  0  0  0  0  0  0
    6.9403   -0.1261   -1.3285 C   0  0  0  0  0  0  0  0  0  0  0  0
    5.5947   -0.0060   -1.2243 O   0  0  0  0  0  0  0  0  0  0  0  0
   -1.2627   -2.0744    1.0019 H   0  0  0  0  0  0  0  0  0  0  0  0
   -1.4130   -0.3001    2.7766 H   0  0  0  0  0  0  0  0  0  0  0  0
    0.0831    1.8988   -1.0516 H   0  0  0  0  0  0  0  0  0  0  0  0
   -2.4491    1.8289   -1.2593 H   0  0  0  0  0  0  0  0  0  0  0  0
   -7.3024   -0.2879    1.5570 H   0  0  0  0  0  0  0  0  0  0  0  0
   -6.1950   -0.4971   -3.7966 H   0  0  0  0  0  0  0  0  0  0  0  0
   -3.8507   -0.1032   -2.6820 H   0  0  0  0  0  0  0  0  0  0  0  0
    1.5112    0.0216    2.9343 H   0  0  0  0  0  0  0  0  0  0  0  0
    4.1121   -0.2202    2.7389 H   0  0  0  0  0  0  0  0  0  0  0  0
    6.4978   -0.3755    1.9055 H   0  0  0  0  0  0  0  0  0  0  0  0
    8.5563   -0.4128    0.1249 H   0  0  0  0  0  0  0  0  0  0  0  0
    7.3368   -0.0736   -2.3329 H   0  0  0  0  0  0  0  0  0  0  0  0
  1  2  1  0
  2  3  2  0
  3  4  1  0
  4  5  2  0
  5  6  1  0
  6  7  1  0
  7  8  1  0
  8  9  2  0
  9 10  1  0
 10 11  1  0
 11 12  2  0
 12 13  1  0
  2 14  1  0
 14 15  2  0
 15 16  1  0
 16 17  2  0
 17 18  1  0
 17 19  1  0
 19 20  2  0
 20 21  1  0
 21 22  2  0
 22 23  1  0
  5  1  1  0
 13  6  2  0
 18 14  1  0
 23 19  1  0
 13  9  1  0
  1 24  1  0
  1 25  1  0
  3 26  1  0
  4 27  1  0
  8 28  1  0
 11 29  1  0
 12 30  1  0
 15 31  1  0
 16 32  1  0
 20 33  1  0
 21 34  1  0
 22 35  1  0
M  END
