
     RDKit          3D

 35 40  0  0  0  0  0  0  0  0999 V2000
   -0.7675   -0.2954    1.4823 C   0  0  0  0  0  0  0  0  0  0  0  0
   -1.6198   -0.1419    0.2240 C   0  0  0  0  0  0  0  0  0  0  0  0
   -0.8374   -0.0028   -0.8663 C   0  0  0  0  0  0  0  0  0  0  0  0
    0.5579   -0.0389   -0.4562 C   0  0  0  0  0  0  0  0  0  0  0  0
    1.6987    0.0698   -1.2395 C   0  0  0  0  0  0  0  0  0  0  0  0
    2.9244   -0.0008   -0.5575 C   0  0  0  0  0  0  0  0  0  0  0  0
    4.2036    0.0749   -1.0600 N   0  0  0  0  0  0  0  0  0  0  0  0
    5.0974   -0.0427   -0.0260 C   0  0  0  0  0  0  0  0  0  0  0  0
    6.5077   -0.0480    0.1419 C   0  0  0  0  0  0  0  0  0  0  0  0
    6.8178   -0.2089    1.4758 C   0  0  0  0  0  0  0  0  0  0  0  0
    5.4478   -0.3509    2.5080 S   0  0  0  0  0  0  0  0  0  0  0  0
    4.4002   -0.1933    1.1353 C   0  0  0  0  0  0  0  0  0  0  0  0
    3.0035   -0.1712    0.8326 C   0  0  0  0  0  0  0  0  0  0  0  0
    1.8303   -0.2795    1.6061 C   0  0  0  0  0  0  0  0  0  0  0  0
    0.6208   -0.2089    0.9266 C   0  0  0  0  0  0  0  0  0  0  0  0
   -3.0433   -0.1428    0.1254 C   0  0  0  0  0  0  0  0  0  0  0  0
   -4.0193   -0.6597    1.4967 S   0  0  0  0  0  0  0  0  0  0  0  0
   -5.5286   -0.4138    0.6878 C   0  0  0  0  0  0  0  0  0  0  0  0
   -5.2613    0.0452   -0.5485 C   0  0  0  0  0  0  0  0  0  0  0  0
   -6.1762    0.3746   -1.5056 N   0  0  0  0  0  0  0  0  0  0  0  0
   -5.3455    0.7876   -2.5430 C   0  0  0  0  0  0  0  0  0  0  0  0
   -3.9840    0.6943   -2.1834 C   0  0  0  0  0  0  0  0  0  0  0  0
   -3.9253    0.1927   -0.8519 C   0  0  0  0  0  0  0  0  0  0  0  0
   -0.9569    0.5205    2.1869 H   0  0  0  0  0  0  0  0  0  0  0  0
   -0.9322   -1.2676    1.9574 H   0  0  0  0  0  0  0  0  0  0  0  0
   -1.1383    0.1101   -1.8942 H   0  0  0  0  0  0  0  0  0  0  0  0
    1.6463    0.2015   -2.3136 H   0  0  0  0  0  0  0  0  0  0  0  0
    4.4751    0.1968   -2.0266 H   0  0  0  0  0  0  0  0  0  0  0  0
    7.2415    0.0571   -0.6464 H   0  0  0  0  0  0  0  0  0  0  0  0
    7.8046   -0.2524    1.9163 H   0  0  0  0  0  0  0  0  0  0  0  0
    1.8734   -0.4122    2.6814 H   0  0  0  0  0  0  0  0  0  0  0  0
   -6.4809   -0.6119    1.1583 H   0  0  0  0  0  0  0  0  0  0  0  0
   -7.1858    0.3254   -1.4468 H   0  0  0  0  0  0  0  0  0  0  0  0
   -5.7912    1.1250   -3.4700 H   0  0  0  0  0  0  0  0  0  0  0  0
   -3.1574    0.9683   -2.8241 H   0  0  0  0  0  0  0  0  0  0  0  0
  1  2  1  0
  2  3  2  0
  3  4  1  0
  4  5  2  0
  5  6  1  0
  6  7  1  0
  7  8  1  0
  8  9  1  0
  9 10  2  0
 10 11  1  0
 11 12  1  0
 12 13  1  0
 13 14  1  0
 14 15  2  0
  2 16  1  0
 16 17  1  0
 17 18  1  0
 18 19  2  0
 19 20  1  0
 20 21  1  0
 21 22  2  0
 22 23  1  0
 15  1  1  0
 23 16  2  0
 15  4  1  0
 23 19  1  0
 13  6  2  0
 12  8  2  0
  1 24  1  0
  1 25  1  0
  3 26  1  0
  5 27  1  0
  7 28  1  0
  9 29  1  0
 10 30  1  0
 14 31  1  0
 18 32  1  0
 20 33  1  0
 21 34  1  0
 22 35  1  0
M  END
