
     RDKit          3D

 50 57  0  0  0  0  0  0  0  0999 V2000
    1.7575   -0.2998   -0.6070 C   0  0  0  0  0  0  0  0  0  0  0  0
    2.8003    0.1889    0.3753 C   0  0  0  0  0  0  0  0  0  0  0  0
    2.2573    0.5858    1.5384 C   0  0  0  0  0  0  0  0  0  0  0  0
    0.8196    0.4240    1.4237 C   0  0  0  0  0  0  0  0  0  0  0  0
   -0.1551    0.6823    2.3565 C   0  0  0  0  0  0  0  0  0  0  0  0
   -1.4943    0.4408    2.0107 C   0  0  0  0  0  0  0  0  0  0  0  0
   -1.9263   -0.0405    0.7430 C   0  0  0  0  0  0  0  0  0  0  0  0
   -0.8589   -0.3392   -0.1814 C   0  0  0  0  0  0  0  0  0  0  0  0
    0.4889   -0.0901    0.1692 C   0  0  0  0  0  0  0  0  0  0  0  0
   -1.3445   -0.8966   -1.3934 C   0  0  0  0  0  0  0  0  0  0  0  0
   -0.6043   -1.3024   -2.4813 C   0  0  0  0  0  0  0  0  0  0  0  0
   -1.4759   -1.7941   -3.4250 N   0  0  0  0  0  0  0  0  0  0  0  0
   -2.7644   -1.7113   -2.9584 C   0  0  0  0  0  0  0  0  0  0  0  0
   -2.7161   -1.1560   -1.6987 C   0  0  0  0  0  0  0  0  0  0  0  0
   -3.8202   -0.8793   -0.8664 C   0  0  0  0  0  0  0  0  0  0  0  0
   -5.1912   -1.1821   -1.2616 C   0  0  0  0  0  0  0  0  0  0  0  0
   -6.3141   -0.8883   -0.4797 C   0  0  0  0  0  0  0  0  0  0  0  0
   -5.9243   -0.2487    0.6807 C   0  0  0  0  0  0  0  0  0  0  0  0
   -6.8156    0.2178    1.6121 C   0  0  0  0  0  0  0  0  0  0  0  0
   -6.0769    0.8412    2.5835 N   0  0  0  0  0  0  0  0  0  0  0  0
   -4.7332    0.7805    2.2699 C   0  0  0  0  0  0  0  0  0  0  0  0
   -4.5824    0.0613    1.1034 C   0  0  0  0  0  0  0  0  0  0  0  0
   -3.3728   -0.2587    0.3859 C   0  0  0  0  0  0  0  0  0  0  0  0
    4.2176    0.1569    0.0562 C   0  0  0  0  0  0  0  0  0  0  0  0
    4.8857   -0.9980   -0.4204 C   0  0  0  0  0  0  0  0  0  0  0  0
    6.2821   -1.0461   -0.7371 C   0  0  0  0  0  0  0  0  0  0  0  0
    7.1545    0.0557   -0.6203 C   0  0  0  0  0  0  0  0  0  0  0  0
    6.4927    1.1970   -0.1677 C   0  0  0  0  0  0  0  0  0  0  0  0
    7.1386    2.3963    0.0042 C   0  0  0  0  0  0  0  0  0  0  0  0
    6.0535    3.6158    0.5381 S   0  0  0  0  0  0  0  0  0  0  0  0
    4.7171    2.5328    0.5345 C   0  0  0  0  0  0  0  0  0  0  0  0
    5.0854    1.2605    0.1595 C   0  0  0  0  0  0  0  0  0  0  0  0
    1.9018   -1.3598   -0.8367 H   0  0  0  0  0  0  0  0  0  0  0  0
    1.7696    0.3112   -1.5149 H   0  0  0  0  0  0  0  0  0  0  0  0
    2.7641    0.9480    2.4183 H   0  0  0  0  0  0  0  0  0  0  0  0
    0.0967    1.0526    3.3448 H   0  0  0  0  0  0  0  0  0  0  0  0
   -2.2105    0.6083    2.8027 H   0  0  0  0  0  0  0  0  0  0  0  0
    0.4524   -1.2989   -2.6979 H   0  0  0  0  0  0  0  0  0  0  0  0
   -1.2072   -2.1609   -4.3290 H   0  0  0  0  0  0  0  0  0  0  0  0
   -3.5826   -2.0528   -3.5764 H   0  0  0  0  0  0  0  0  0  0  0  0
   -5.3702   -1.6619   -2.2220 H   0  0  0  0  0  0  0  0  0  0  0  0
   -7.3282   -1.1071   -0.7788 H   0  0  0  0  0  0  0  0  0  0  0  0
   -7.8952    0.1859    1.6675 H   0  0  0  0  0  0  0  0  0  0  0  0
   -6.4596    1.3100    3.3942 H   0  0  0  0  0  0  0  0  0  0  0  0
   -4.0477    1.2926    2.9234 H   0  0  0  0  0  0  0  0  0  0  0  0
    4.3163   -1.9207   -0.5395 H   0  0  0  0  0  0  0  0  0  0  0  0
    6.6925   -1.9944   -1.0862 H   0  0  0  0  0  0  0  0  0  0  0  0
    8.2065   -0.0015   -0.8662 H   0  0  0  0  0  0  0  0  0  0  0  0
    8.1804    2.6359   -0.1580 H   0  0  0  0  0  0  0  0  0  0  0  0
    3.7406    2.9068    0.8082 H   0  0  0  0  0  0  0  0  0  0  0  0
  1  2  1  0
  2  3  2  0
  3  4  1  0
  4  5  2  0
  5  6  1  0
  6  7  2  0
  7  8  1  0
  8  9  2  0
  8 10  1  0
 10 11  2  0
 11 12  1  0
 12 13  1  0
 13 14  2  0
 14 15  1  0
 15 16  1  0
 16 17  2  0
 17 18  1  0
 18 19  2  0
 19 20  1  0
 20 21  1  0
 21 22  2  0
 22 23  1  0
  2 24  1  0
 24 25  2  0
 25 26  1  0
 26 27  2  0
 27 28  1  0
 28 29  2  0
 29 30  1  0
 30 31  1  0
 31 32  2  0
  9  1  1  0
 14 10  1  0
 23 15  2  0
 32 24  1  0
  9  4  1  0
 22 18  1  0
 32 28  1  0
 23  7  1  0
  1 33  1  0
  1 34  1  0
  3 35  1  0
  5 36  1  0
  6 37  1  0
 11 38  1  0
 12 39  1  0
 13 40  1  0
 16 41  1  0
 17 42  1  0
 19 43  1  0
 20 44  1  0
 21 45  1  0
 25 46  1  0
 26 47  1  0
 27 48  1  0
 29 49  1  0
 31 50  1  0
M  END
