
     RDKit          3D

 46 52  0  0  0  0  0  0  0  0999 V2000
   -2.5123    0.4247   -0.0646 C   0  0  0  0  0  0  0  0  0  0  0  0
   -3.3954   -0.7635    0.2752 C   0  0  0  0  0  0  0  0  0  0  0  0
   -2.6577   -1.8693    0.4839 C   0  0  0  0  0  0  0  0  0  0  0  0
   -1.2592   -1.5177    0.3137 C   0  0  0  0  0  0  0  0  0  0  0  0
   -0.1579   -2.3339    0.3931 C   0  0  0  0  0  0  0  0  0  0  0  0
    1.1058   -1.7652    0.1912 C   0  0  0  0  0  0  0  0  0  0  0  0
    1.3352   -0.3820   -0.0618 C   0  0  0  0  0  0  0  0  0  0  0  0
    0.1428    0.4224   -0.2245 C   0  0  0  0  0  0  0  0  0  0  0  0
   -1.1310   -0.1641   -0.0027 C   0  0  0  0  0  0  0  0  0  0  0  0
    0.4344    1.7632   -0.6371 C   0  0  0  0  0  0  0  0  0  0  0  0
   -0.5089    2.7409   -0.8628 C   0  0  0  0  0  0  0  0  0  0  0  0
    0.1785    4.2163   -1.4007 S   0  0  0  0  0  0  0  0  0  0  0  0
    1.7594    3.5654   -1.3408 C   0  0  0  0  0  0  0  0  0  0  0  0
    1.7675    2.2541   -0.9163 C   0  0  0  0  0  0  0  0  0  0  0  0
    2.9321    1.4886   -0.7542 C   0  0  0  0  0  0  0  0  0  0  0  0
    4.2603    1.9669   -1.1777 C   0  0  0  0  0  0  0  0  0  0  0  0
    5.3629    1.2351   -0.9612 C   0  0  0  0  0  0  0  0  0  0  0  0
    5.2684    0.0037   -0.2180 C   0  0  0  0  0  0  0  0  0  0  0  0
    6.3493   -0.6785    0.2060 C   0  0  0  0  0  0  0  0  0  0  0  0
    5.8590   -2.0679    1.3405 Si  0  0  0  0  0  4  0  0  0  0  0  0
    4.0788   -1.5273    1.1234 C   0  0  0  0  0  0  0  0  0  0  0  0
    3.9517   -0.5240    0.2259 C   0  0  0  0  0  0  0  0  0  0  0  0
    2.6851    0.1805   -0.2042 C   0  0  0  0  0  0  0  0  0  0  0  0
   -4.8624   -0.6545    0.3448 C   0  0  0  0  0  0  0  0  0  0  0  0
   -5.5248    0.5480    0.0691 C   0  0  0  0  0  0  0  0  0  0  0  0
   -6.9164    0.6261    0.1434 C   0  0  0  0  0  0  0  0  0  0  0  0
   -7.6217   -0.5095    0.4955 C   0  0  0  0  0  0  0  0  0  0  0  0
   -7.0361   -1.6902    0.7719 N   0  0  0  0  0  0  0  0  0  0  0  0
   -5.6812   -1.7316    0.6902 C   0  0  0  0  0  0  0  0  0  0  0  0
   -2.7335    0.7839   -1.0747 H   0  0  0  0  0  0  0  0  0  0  0  0
   -2.6274    1.2167    0.6822 H   0  0  0  0  0  0  0  0  0  0  0  0
   -2.9859   -2.8648    0.7345 H   0  0  0  0  0  0  0  0  0  0  0  0
   -0.2560   -3.3966    0.5896 H   0  0  0  0  0  0  0  0  0  0  0  0
    1.9363   -2.4655    0.1810 H   0  0  0  0  0  0  0  0  0  0  0  0
   -1.5796    2.7148   -0.7560 H   0  0  0  0  0  0  0  0  0  0  0  0
    2.5853    4.2069   -1.6104 H   0  0  0  0  0  0  0  0  0  0  0  0
    4.3483    2.9003   -1.7190 H   0  0  0  0  0  0  0  0  0  0  0  0
    6.3353    1.5827   -1.2938 H   0  0  0  0  0  0  0  0  0  0  0  0
    7.3850   -0.4388    0.0247 H   0  0  0  0  0  0  0  0  0  0  0  0
    6.3427   -1.8727    2.7283 H   0  0  0  0  0  0  0  0  0  0  0  0
    6.1134   -3.4057    0.7537 H   0  0  0  0  0  0  0  0  0  0  0  0
    3.3170   -2.0087    1.7118 H   0  0  0  0  0  0  0  0  0  0  0  0
   -4.9775    1.4442   -0.2087 H   0  0  0  0  0  0  0  0  0  0  0  0
   -7.4353    1.5541   -0.0696 H   0  0  0  0  0  0  0  0  0  0  0  0
   -8.7054   -0.4992    0.5668 H   0  0  0  0  0  0  0  0  0  0  0  0
   -5.2688   -2.7083    0.9258 H   0  0  0  0  0  0  0  0  0  0  0  0
  1  2  1  0
  2  3  2  0
  3  4  1  0
  4  5  2  0
  5  6  1  0
  6  7  2  0
  7  8  1  0
  8  9  2  0
  8 10  1  0
 10 11  2  0
 11 12  1  0
 12 13  1  0
 13 14  2  0
 14 15  1  0
 15 16  1  0
 16 17  2  0
 17 18  1  0
 18 19  2  0
 19 20  1  0
 20 21  1  0
 21 22  2  0
 22 23  1  0
  2 24  1  0
 24 25  2  0
 25 26  1  0
 26 27  2  0
 27 28  1  0
 28 29  2  0
  9  1  1  0
 14 10  1  0
 23 15  2  0
 29 24  1  0
  9  4  1  0
 22 18  1  0
 23  7  1  0
  1 30  1  0
  1 31  1  0
  3 32  1  0
  5 33  1  0
  6 34  1  0
 11 35  1  0
 13 36  1  0
 16 37  1  0
 17 38  1  0
 19 39  1  0
 20 40  1  0
 20 41  1  0
 21 42  1  0
 25 43  1  0
 26 44  1  0
 27 45  1  0
 29 46  1  0
M  END
