
     RDKit          3D

 38 43  0  0  0  0  0  0  0  0999 V2000
   -1.2911    0.4196   -0.1997 C   0  0  0  0  0  0  0  0  0  0  0  0
   -2.3552   -0.6172    0.1509 C   0  0  0  0  0  0  0  0  0  0  0  0
   -1.7784   -1.7510    0.6008 C   0  0  0  0  0  0  0  0  0  0  0  0
   -0.3360   -1.5800    0.5913 C   0  0  0  0  0  0  0  0  0  0  0  0
    0.6528   -2.4635    0.9624 C   0  0  0  0  0  0  0  0  0  0  0  0
    1.9861   -2.0468    0.8561 C   0  0  0  0  0  0  0  0  0  0  0  0
    2.3561   -0.7513    0.3814 C   0  0  0  0  0  0  0  0  0  0  0  0
    1.3097    0.1241    0.0111 C   0  0  0  0  0  0  0  0  0  0  0  0
    1.6536    1.3903   -0.4536 C   0  0  0  0  0  0  0  0  0  0  0  0
    2.9161    1.8466   -0.5775 N   0  0  0  0  0  0  0  0  0  0  0  0
    3.9157    1.0271   -0.2301 C   0  0  0  0  0  0  0  0  0  0  0  0
    5.2104    1.5104   -0.3631 C   0  0  0  0  0  0  0  0  0  0  0  0
    6.3257    0.7420   -0.0306 C   0  0  0  0  0  0  0  0  0  0  0  0
    6.1475   -0.5453    0.4484 C   0  0  0  0  0  0  0  0  0  0  0  0
    4.8556   -1.0536    0.5908 C   0  0  0  0  0  0  0  0  0  0  0  0
    3.7090   -0.2861    0.2575 C   0  0  0  0  0  0  0  0  0  0  0  0
   -0.0184   -0.3062    0.1228 C   0  0  0  0  0  0  0  0  0  0  0  0
   -3.7705   -0.4539    0.0352 C   0  0  0  0  0  0  0  0  0  0  0  0
   -4.9390   -1.7020    0.4614 S   0  0  0  0  0  0  0  0  0  0  0  0
   -6.3176   -0.7458    0.0480 C   0  0  0  0  0  0  0  0  0  0  0  0
   -5.8679    0.4431   -0.3833 C   0  0  0  0  0  0  0  0  0  0  0  0
   -6.6324    1.4859   -0.8058 O   0  0  0  0  0  0  0  0  0  0  0  0
   -5.6363    2.3940   -1.1103 C   0  0  0  0  0  0  0  0  0  0  0  0
   -4.3384    1.9190   -0.8815 C   0  0  0  0  0  0  0  0  0  0  0  0
   -4.5047    0.6074   -0.3931 C   0  0  0  0  0  0  0  0  0  0  0  0
   -1.3345    0.6772   -1.2627 H   0  0  0  0  0  0  0  0  0  0  0  0
   -1.3989    1.3133    0.4232 H   0  0  0  0  0  0  0  0  0  0  0  0
   -2.2516   -2.6638    0.9272 H   0  0  0  0  0  0  0  0  0  0  0  0
    0.4131   -3.4567    1.3280 H   0  0  0  0  0  0  0  0  0  0  0  0
    2.7481   -2.7623    1.1552 H   0  0  0  0  0  0  0  0  0  0  0  0
    0.8966    2.1097   -0.7539 H   0  0  0  0  0  0  0  0  0  0  0  0
    5.3552    2.5211   -0.7390 H   0  0  0  0  0  0  0  0  0  0  0  0
    7.3245    1.1535   -0.1478 H   0  0  0  0  0  0  0  0  0  0  0  0
    7.0073   -1.1560    0.7116 H   0  0  0  0  0  0  0  0  0  0  0  0
    4.7588   -2.0670    0.9695 H   0  0  0  0  0  0  0  0  0  0  0  0
   -7.3380   -1.0879    0.1381 H   0  0  0  0  0  0  0  0  0  0  0  0
   -6.0062    3.3410   -1.4816 H   0  0  0  0  0  0  0  0  0  0  0  0
   -3.4267    2.4711   -1.0549 H   0  0  0  0  0  0  0  0  0  0  0  0
  1  2  1  0
  2  3  2  0
  3  4  1  0
  4  5  2  0
  5  6  1  0
  6  7  2  0
  7  8  1  0
  8  9  1  0
  9 10  2  0
 10 11  1  0
 11 12  2  0
 12 13  1  0
 13 14  2  0
 14 15  1  0
 15 16  2  0
  8 17  2  0
  2 18  1  0
 18 19  1  0
 19 20  1  0
 20 21  2  0
 21 22  1  0
 22 23  1  0
 23 24  2  0
 24 25  1  0
 17  1  1  0
 25 18  2  0
 17  4  1  0
 25 21  1  0
 16  7  1  0
 16 11  1  0
  1 26  1  0
  1 27  1  0
  3 28  1  0
  5 29  1  0
  6 30  1  0
  9 31  1  0
 12 32  1  0
 13 33  1  0
 14 34  1  0
 15 35  1  0
 20 36  1  0
 23 37  1  0
 24 38  1  0
M  END
