
     RDKit          3D

 36 41  0  0  0  0  0  0  0  0999 V2000
    1.4713   -0.2738    0.6142 C   0  0  0  0  0  0  0  0  0  0  0  0
    2.4874    0.2241   -0.4114 C   0  0  0  0  0  0  0  0  0  0  0  0
    1.8643    0.7588   -1.4810 C   0  0  0  0  0  0  0  0  0  0  0  0
    0.4278    0.6723   -1.2791 C   0  0  0  0  0  0  0  0  0  0  0  0
   -0.5975    1.0926   -2.1094 C   0  0  0  0  0  0  0  0  0  0  0  0
   -1.9206    0.9000   -1.6953 C   0  0  0  0  0  0  0  0  0  0  0  0
   -2.2084    0.2869   -0.4504 C   0  0  0  0  0  0  0  0  0  0  0  0
   -3.5532    0.0919   -0.0309 C   0  0  0  0  0  0  0  0  0  0  0  0
   -4.7688    0.3943   -0.6195 N   0  0  0  0  0  0  0  0  0  0  0  0
   -5.8122    0.0024    0.1923 C   0  0  0  0  0  0  0  0  0  0  0  0
   -5.2906   -0.5674    1.3344 C   0  0  0  0  0  0  0  0  0  0  0  0
   -3.9057   -0.4980    1.1681 C   0  0  0  0  0  0  0  0  0  0  0  0
   -2.8888   -0.9491    2.0609 C   0  0  0  0  0  0  0  0  0  0  0  0
   -3.1602   -1.5217    3.2237 N   0  0  0  0  0  0  0  0  0  0  0  0
   -1.6325   -1.8369    3.8321 S   0  0  0  0  0  0  0  0  0  0  0  0
   -0.6747   -1.2348    2.5971 N   0  0  0  0  0  0  0  0  0  0  0  0
   -1.5091   -0.7567    1.6461 C   0  0  0  0  0  0  0  0  0  0  0  0
   -1.1434   -0.1430    0.3987 C   0  0  0  0  0  0  0  0  0  0  0  0
    0.1697    0.0649   -0.0461 C   0  0  0  0  0  0  0  0  0  0  0  0
    3.9061    0.1807   -0.3503 C   0  0  0  0  0  0  0  0  0  0  0  0
    4.9298    0.5852   -1.1890 C   0  0  0  0  0  0  0  0  0  0  0  0
    6.1610    0.2662   -0.5663 C   0  0  0  0  0  0  0  0  0  0  0  0
    5.8653   -0.3259    0.6386 C   0  0  0  0  0  0  0  0  0  0  0  0
    4.5004   -0.3738    0.7614 N   0  0  0  0  0  0  0  0  0  0  0  0
    1.5710   -1.3539    0.7604 H   0  0  0  0  0  0  0  0  0  0  0  0
    1.5860    0.2639    1.5606 H   0  0  0  0  0  0  0  0  0  0  0  0
    2.3134    1.1901   -2.3613 H   0  0  0  0  0  0  0  0  0  0  0  0
   -0.3828    1.5628   -3.0641 H   0  0  0  0  0  0  0  0  0  0  0  0
   -2.7178    1.2332   -2.3539 H   0  0  0  0  0  0  0  0  0  0  0  0
   -4.8781    0.8406   -1.5196 H   0  0  0  0  0  0  0  0  0  0  0  0
   -6.8362    0.1651   -0.1173 H   0  0  0  0  0  0  0  0  0  0  0  0
   -5.8486   -0.9744    2.1677 H   0  0  0  0  0  0  0  0  0  0  0  0
    4.8085    1.0621   -2.1526 H   0  0  0  0  0  0  0  0  0  0  0  0
    7.1534    0.4497   -0.9567 H   0  0  0  0  0  0  0  0  0  0  0  0
    6.5043   -0.7170    1.4187 H   0  0  0  0  0  0  0  0  0  0  0  0
    4.0094   -0.7614    1.5557 H   0  0  0  0  0  0  0  0  0  0  0  0
  1  2  1  0
  2  3  2  0
  3  4  1  0
  4  5  2  0
  5  6  1  0
  6  7  2  0
  7  8  1  0
  8  9  1  0
  9 10  1  0
 10 11  2  0
 11 12  1  0
 12 13  1  0
 13 14  2  0
 14 15  1  0
 15 16  1  0
 16 17  2  0
 17 18  1  0
 18 19  2  0
  2 20  1  0
 20 21  2  0
 21 22  1  0
 22 23  2  0
 23 24  1  0
 19  1  1  0
 24 20  1  0
 19  4  1  0
 18  7  1  0
 12  8  2  0
 17 13  1  0
  1 25  1  0
  1 26  1  0
  3 27  1  0
  5 28  1  0
  6 29  1  0
  9 30  1  0
 10 31  1  0
 11 32  1  0
 21 33  1  0
 22 34  1  0
 23 35  1  0
 24 36  1  0
M  END
