
     RDKit          3D

 36 41  0  0  0  0  0  0  0  0999 V2000
   -0.6652    0.1676    0.1308 C   0  0  0  0  0  0  0  0  0  0  0  0
   -1.4861   -1.1188    0.2248 C   0  0  0  0  0  0  0  0  0  0  0  0
   -0.6733   -2.1965    0.2520 C   0  0  0  0  0  0  0  0  0  0  0  0
    0.7079   -1.7495    0.1816 C   0  0  0  0  0  0  0  0  0  0  0  0
    1.8697   -2.4994    0.1799 C   0  0  0  0  0  0  0  0  0  0  0  0
    3.0928   -1.8269    0.1034 C   0  0  0  0  0  0  0  0  0  0  0  0
    3.1415   -0.4075    0.0291 C   0  0  0  0  0  0  0  0  0  0  0  0
    4.3645    0.3179   -0.0501 C   0  0  0  0  0  0  0  0  0  0  0  0
    5.9966   -0.2537   -0.0771 S   0  0  0  0  0  0  0  0  0  0  0  0
    6.6362    1.3242   -0.1799 C   0  0  0  0  0  0  0  0  0  0  0  0
    5.6475    2.2786   -0.1946 C   0  0  0  0  0  0  0  0  0  0  0  0
    4.3400    1.7143   -0.1207 C   0  0  0  0  0  0  0  0  0  0  0  0
    3.1931    2.4443   -0.1184 N   0  0  0  0  0  0  0  0  0  0  0  0
    2.0490    1.7359   -0.0428 C   0  0  0  0  0  0  0  0  0  0  0  0
    1.9497    0.3466    0.0316 C   0  0  0  0  0  0  0  0  0  0  0  0
    0.7412   -0.3534    0.1091 C   0  0  0  0  0  0  0  0  0  0  0  0
   -2.9197   -1.2064    0.2785 C   0  0  0  0  0  0  0  0  0  0  0  0
   -3.7639   -2.7247    0.3856 S   0  0  0  0  0  0  0  0  0  0  0  0
   -5.3100   -1.9959    0.4012 C   0  0  0  0  0  0  0  0  0  0  0  0
   -5.2166   -0.6335    0.3280 C   0  0  0  0  0  0  0  0  0  0  0  0
   -6.3085    0.1804    0.3236 N   0  0  0  0  0  0  0  0  0  0  0  0
   -5.9346    1.4857    0.2437 C   0  0  0  0  0  0  0  0  0  0  0  0
   -4.6131    1.9414    0.1749 C   0  0  0  0  0  0  0  0  0  0  0  0
   -3.5069    1.1479    0.1777 N   0  0  0  0  0  0  0  0  0  0  0  0
   -3.8487   -0.1749    0.2574 C   0  0  0  0  0  0  0  0  0  0  0  0
   -0.8286    0.8011    1.0084 H   0  0  0  0  0  0  0  0  0  0  0  0
   -0.8906    0.7090   -0.7934 H   0  0  0  0  0  0  0  0  0  0  0  0
   -0.9382   -3.2402    0.3144 H   0  0  0  0  0  0  0  0  0  0  0  0
    1.8396   -3.5827    0.2363 H   0  0  0  0  0  0  0  0  0  0  0  0
    4.0083   -2.4142    0.1019 H   0  0  0  0  0  0  0  0  0  0  0  0
    7.7057    1.4786   -0.2247 H   0  0  0  0  0  0  0  0  0  0  0  0
    5.8391    3.3418   -0.2556 H   0  0  0  0  0  0  0  0  0  0  0  0
    1.1544    2.3552   -0.0436 H   0  0  0  0  0  0  0  0  0  0  0  0
   -6.2069   -2.5948    0.4627 H   0  0  0  0  0  0  0  0  0  0  0  0
   -6.7570    2.1957    0.2354 H   0  0  0  0  0  0  0  0  0  0  0  0
   -4.4089    3.0068    0.1131 H   0  0  0  0  0  0  0  0  0  0  0  0
  1  2  1  0
  2  3  2  0
  3  4  1  0
  4  5  2  0
  5  6  1  0
  6  7  2  0
  7  8  1  0
  8  9  1  0
  9 10  1  0
 10 11  2  0
 11 12  1  0
 12 13  1  0
 13 14  2  0
 14 15  1  0
 15 16  2  0
  2 17  1  0
 17 18  1  0
 18 19  1  0
 19 20  2  0
 20 21  1  0
 21 22  2  0
 22 23  1  0
 23 24  2  0
 24 25  1  0
 16  1  1  0
 25 17  2  0
 16  4  1  0
 25 20  1  0
 15  7  1  0
 12  8  2  0
  1 26  1  0
  1 27  1  0
  3 28  1  0
  5 29  1  0
  6 30  1  0
 10 31  1  0
 11 32  1  0
 14 33  1  0
 19 34  1  0
 22 35  1  0
 23 36  1  0
M  END
