
     RDKit          3D

 40 45  0  0  0  0  0  0  0  0999 V2000
    1.5831   -0.2203   -0.0380 C   0  0  0  0  0  0  0  0  0  0  0  0
    2.5793    0.5119   -0.9284 C   0  0  0  0  0  0  0  0  0  0  0  0
    1.9558    1.3299   -1.7974 C   0  0  0  0  0  0  0  0  0  0  0  0
    0.5285    1.2232   -1.5657 C   0  0  0  0  0  0  0  0  0  0  0  0
   -0.5308    1.8456   -2.1789 C   0  0  0  0  0  0  0  0  0  0  0  0
   -1.8223    1.6233   -1.8249 N   0  0  0  0  0  0  0  0  0  0  0  0
   -2.0992    0.7540   -0.8247 C   0  0  0  0  0  0  0  0  0  0  0  0
   -3.4515    0.5285   -0.4623 C   0  0  0  0  0  0  0  0  0  0  0  0
   -4.9794    1.3257   -1.2357 Si  0  0  0  0  0  4  0  0  0  0  0  0
   -6.0660    0.3341   -0.0330 C   0  0  0  0  0  0  0  0  0  0  0  0
   -5.3572   -0.4538    0.7960 C   0  0  0  0  0  0  0  0  0  0  0  0
   -3.9226   -0.3515    0.5652 C   0  0  0  0  0  0  0  0  0  0  0  0
   -2.8886   -1.0026    1.2149 C   0  0  0  0  0  0  0  0  0  0  0  0
   -2.9708   -1.9075    2.2413 C   0  0  0  0  0  0  0  0  0  0  0  0
   -1.6806   -2.2752    2.5539 N   0  0  0  0  0  0  0  0  0  0  0  0
   -0.7828   -1.6151    1.7375 C   0  0  0  0  0  0  0  0  0  0  0  0
   -1.5087   -0.8128    0.8901 C   0  0  0  0  0  0  0  0  0  0  0  0
   -1.0390    0.0645   -0.1349 C   0  0  0  0  0  0  0  0  0  0  0  0
    0.2803    0.3241   -0.5347 C   0  0  0  0  0  0  0  0  0  0  0  0
    4.0051    0.3453   -0.8241 C   0  0  0  0  0  0  0  0  0  0  0  0
    4.9599    1.2805   -1.0231 C   0  0  0  0  0  0  0  0  0  0  0  0
    6.3331    0.8423   -0.8225 C   0  0  0  0  0  0  0  0  0  0  0  0
    6.4804   -0.4428   -0.4547 C   0  0  0  0  0  0  0  0  0  0  0  0
    4.8203   -1.3027   -0.3162 Si  0  0  0  0  0  4  0  0  0  0  0  0
    1.7417    0.0368    1.0140 H   0  0  0  0  0  0  0  0  0  0  0  0
    1.6282   -1.3022   -0.1944 H   0  0  0  0  0  0  0  0  0  0  0  0
    2.4038    1.9670   -2.5431 H   0  0  0  0  0  0  0  0  0  0  0  0
   -0.3868    2.5550   -2.9870 H   0  0  0  0  0  0  0  0  0  0  0  0
   -5.1198    2.7789   -0.9585 H   0  0  0  0  0  0  0  0  0  0  0  0
   -5.2546    0.8969   -2.6317 H   0  0  0  0  0  0  0  0  0  0  0  0
   -7.1394    0.4382   -0.0633 H   0  0  0  0  0  0  0  0  0  0  0  0
   -5.7809   -1.0969    1.5536 H   0  0  0  0  0  0  0  0  0  0  0  0
   -3.8097   -2.3256    2.7805 H   0  0  0  0  0  0  0  0  0  0  0  0
   -1.4269   -2.9339    3.2789 H   0  0  0  0  0  0  0  0  0  0  0  0
    0.2754   -1.7935    1.8570 H   0  0  0  0  0  0  0  0  0  0  0  0
    4.7560    2.3076   -1.3019 H   0  0  0  0  0  0  0  0  0  0  0  0
    7.1601    1.5276   -0.9639 H   0  0  0  0  0  0  0  0  0  0  0  0
    7.4067   -0.9583   -0.2569 H   0  0  0  0  0  0  0  0  0  0  0  0
    4.4798   -1.6810    1.0791 H   0  0  0  0  0  0  0  0  0  0  0  0
    4.6404   -2.3651   -1.3364 H   0  0  0  0  0  0  0  0  0  0  0  0
  1  2  1  0
  2  3  2  0
  3  4  1  0
  4  5  2  0
  5  6  1  0
  6  7  2  0
  7  8  1  0
  8  9  1  0
  9 10  1  0
 10 11  2  0
 11 12  1  0
 12 13  1  0
 13 14  2  0
 14 15  1  0
 15 16  1  0
 16 17  2  0
 17 18  1  0
 18 19  2  0
  2 20  1  0
 20 21  2  0
 21 22  1  0
 22 23  2  0
 23 24  1  0
 19  1  1  0
 24 20  1  0
 19  4  1  0
 18  7  1  0
 12  8  2  0
 17 13  1  0
  1 25  1  0
  1 26  1  0
  3 27  1  0
  5 28  1  0
  9 29  1  0
  9 30  1  0
 10 31  1  0
 11 32  1  0
 14 33  1  0
 15 34  1  0
 16 35  1  0
 21 36  1  0
 22 37  1  0
 23 38  1  0
 24 39  1  0
 24 40  1  0
M  END
