
     RDKit          3D

 41 47  0  0  0  0  0  0  0  0999 V2000
   -2.7199    1.2191    3.8091 Si  0  0  0  0  0  4  0  0  0  0  0  0
   -3.5265    0.8037    2.1707 C   0  0  0  0  0  0  0  0  0  0  0  0
   -2.6050    0.4967    1.2320 C   0  0  0  0  0  0  0  0  0  0  0  0
   -2.9013    0.1256   -0.1809 C   0  0  0  0  0  0  0  0  0  0  0  0
   -1.8691   -0.1495   -1.0254 C   0  0  0  0  0  0  0  0  0  0  0  0
   -0.5494   -0.0595   -0.5043 C   0  0  0  0  0  0  0  0  0  0  0  0
    0.5733   -0.3063   -1.2572 N   0  0  0  0  0  0  0  0  0  0  0  0
    1.6577   -0.1286   -0.4327 C   0  0  0  0  0  0  0  0  0  0  0  0
    1.2029    0.2236    0.8083 C   0  0  0  0  0  0  0  0  0  0  0  0
    2.2329    0.4216    1.6990 O   0  0  0  0  0  0  0  0  0  0  0  0
    3.3768    0.1796    0.9700 C   0  0  0  0  0  0  0  0  0  0  0  0
    4.7149    0.2457    1.4153 C   0  0  0  0  0  0  0  0  0  0  0  0
    5.7711   -0.0410    0.5064 C   0  0  0  0  0  0  0  0  0  0  0  0
    5.3329   -0.3695   -0.7813 C   0  0  0  0  0  0  0  0  0  0  0  0
    6.1322   -0.6889   -1.8526 C   0  0  0  0  0  0  0  0  0  0  0  0
    5.3017   -0.9463   -2.9359 N   0  0  0  0  0  0  0  0  0  0  0  0
    3.9726   -0.7974   -2.5778 C   0  0  0  0  0  0  0  0  0  0  0  0
    4.0145   -0.4467   -1.2650 C   0  0  0  0  0  0  0  0  0  0  0  0
    3.0293   -0.1517   -0.3140 C   0  0  0  0  0  0  0  0  0  0  0  0
   -0.1914    0.2754    0.7913 C   0  0  0  0  0  0  0  0  0  0  0  0
   -1.1975    0.5735    1.7366 C   0  0  0  0  0  0  0  0  0  0  0  0
   -1.0563    0.9234    3.0269 C   0  0  0  0  0  0  0  0  0  0  0  0
   -4.2248   -0.0025   -0.7166 C   0  0  0  0  0  0  0  0  0  0  0  0
   -5.1681   -0.9842   -0.4625 C   0  0  0  0  0  0  0  0  0  0  0  0
   -6.3889   -0.7768   -1.1673 C   0  0  0  0  0  0  0  0  0  0  0  0
   -6.3495    0.3630   -1.9366 C   0  0  0  0  0  0  0  0  0  0  0  0
   -4.8518    1.1758   -1.8060 S   0  0  0  0  0  0  0  0  0  0  0  0
   -2.9306    2.6353    4.1948 H   0  0  0  0  0  0  0  0  0  0  0  0
   -3.0452    0.2218    4.8575 H   0  0  0  0  0  0  0  0  0  0  0  0
   -4.5982    0.8324    2.0552 H   0  0  0  0  0  0  0  0  0  0  0  0
   -2.0328   -0.4377   -2.0592 H   0  0  0  0  0  0  0  0  0  0  0  0
    0.6400   -0.5693   -2.2320 H   0  0  0  0  0  0  0  0  0  0  0  0
    4.9301    0.5140    2.4445 H   0  0  0  0  0  0  0  0  0  0  0  0
    6.8112   -0.0025    0.8036 H   0  0  0  0  0  0  0  0  0  0  0  0
    7.2057   -0.7610   -1.9624 H   0  0  0  0  0  0  0  0  0  0  0  0
    5.6263   -1.2062   -3.8582 H   0  0  0  0  0  0  0  0  0  0  0  0
    3.1759   -0.9562   -3.2894 H   0  0  0  0  0  0  0  0  0  0  0  0
   -0.1311    1.0358    3.5700 H   0  0  0  0  0  0  0  0  0  0  0  0
   -4.9831   -1.8181    0.2045 H   0  0  0  0  0  0  0  0  0  0  0  0
   -7.2513   -1.4293   -1.1096 H   0  0  0  0  0  0  0  0  0  0  0  0
   -7.1301    0.7632   -2.5688 H   0  0  0  0  0  0  0  0  0  0  0  0
  1  2  1  0
  2  3  2  0
  3  4  1  0
  4  5  2  0
  5  6  1  0
  6  7  1  0
  7  8  1  0
  8  9  2  0
  9 10  1  0
 10 11  1  0
 11 12  1  0
 12 13  2  0
 13 14  1  0
 14 15  2  0
 15 16  1  0
 16 17  1  0
 17 18  2  0
 18 19  1  0
  9 20  1  0
 20 21  1  0
 21 22  2  0
  4 23  1  0
 23 24  2  0
 24 25  1  0
 25 26  2  0
 26 27  1  0
 22  1  1  0
 27 23  1  0
 21  3  1  0
 20  6  2  0
 19  8  1  0
 19 11  2  0
 18 14  1  0
  1 28  1  0
  1 29  1  0
  2 30  1  0
  5 31  1  0
  7 32  1  0
 12 33  1  0
 13 34  1  0
 15 35  1  0
 16 36  1  0
 17 37  1  0
 22 38  1  0
 24 39  1  0
 25 40  1  0
 26 41  1  0
M  END
