
     RDKit          3D

 34 38  0  0  0  0  0  0  0  0999 V2000
    1.0947    0.4646    0.5584 C   0  0  0  0  0  0  0  0  0  0  0  0
    2.1832   -0.4163   -0.0415 C   0  0  0  0  0  0  0  0  0  0  0  0
    1.6526   -1.4353   -0.7493 C   0  0  0  0  0  0  0  0  0  0  0  0
    0.2044   -1.3302   -0.6879 C   0  0  0  0  0  0  0  0  0  0  0  0
   -0.6300   -2.1882   -1.2868 N   0  0  0  0  0  0  0  0  0  0  0  0
   -1.9620   -1.9547   -1.1358 C   0  0  0  0  0  0  0  0  0  0  0  0
   -2.4287   -0.8602   -0.3834 C   0  0  0  0  0  0  0  0  0  0  0  0
   -1.5022    0.0015    0.2187 C   0  0  0  0  0  0  0  0  0  0  0  0
   -2.2088    0.9729    0.8841 N   0  0  0  0  0  0  0  0  0  0  0  0
   -3.5603    0.7719    0.7350 C   0  0  0  0  0  0  0  0  0  0  0  0
   -4.6584    1.4834    1.2180 C   0  0  0  0  0  0  0  0  0  0  0  0
   -5.9087    0.9839    0.8636 C   0  0  0  0  0  0  0  0  0  0  0  0
   -5.9882   -0.1562    0.0756 C   0  0  0  0  0  0  0  0  0  0  0  0
   -4.9379   -0.8571   -0.4005 N   0  0  0  0  0  0  0  0  0  0  0  0
   -3.7209   -0.3667   -0.0525 C   0  0  0  0  0  0  0  0  0  0  0  0
   -0.1443   -0.2239    0.0734 C   0  0  0  0  0  0  0  0  0  0  0  0
    3.6148   -0.1387    0.1614 C   0  0  0  0  0  0  0  0  0  0  0  0
    4.0518    0.9551    0.9188 C   0  0  0  0  0  0  0  0  0  0  0  0
    5.4150    1.1970    1.0965 C   0  0  0  0  0  0  0  0  0  0  0  0
    6.3193    0.3327    0.5081 C   0  0  0  0  0  0  0  0  0  0  0  0
    5.9538   -0.7329   -0.2293 N   0  0  0  0  0  0  0  0  0  0  0  0
    4.6205   -0.9402   -0.3830 C   0  0  0  0  0  0  0  0  0  0  0  0
    1.1300    0.4617    1.6523 H   0  0  0  0  0  0  0  0  0  0  0  0
    1.1414    1.4862    0.1685 H   0  0  0  0  0  0  0  0  0  0  0  0
    2.1397   -2.2272   -1.2925 H   0  0  0  0  0  0  0  0  0  0  0  0
   -2.6368   -2.6512   -1.6219 H   0  0  0  0  0  0  0  0  0  0  0  0
   -1.7962    1.7298    1.4100 H   0  0  0  0  0  0  0  0  0  0  0  0
   -4.5520    2.3705    1.8315 H   0  0  0  0  0  0  0  0  0  0  0  0
   -6.8151    1.4783    1.1981 H   0  0  0  0  0  0  0  0  0  0  0  0
   -6.9597   -0.5554   -0.2075 H   0  0  0  0  0  0  0  0  0  0  0  0
    3.3480    1.6386    1.3842 H   0  0  0  0  0  0  0  0  0  0  0  0
    5.7608    2.0418    1.6816 H   0  0  0  0  0  0  0  0  0  0  0  0
    7.3900    0.4781    0.6169 H   0  0  0  0  0  0  0  0  0  0  0  0
    4.3900   -1.8135   -0.9867 H   0  0  0  0  0  0  0  0  0  0  0  0
  1  2  1  0
  2  3  2  0
  3  4  1  0
  4  5  2  0
  5  6  1  0
  6  7  2  0
  7  8  1  0
  8  9  1  0
  9 10  1  0
 10 11  2  0
 11 12  1  0
 12 13  2  0
 13 14  1  0
 14 15  2  0
  8 16  2  0
  2 17  1  0
 17 18  2  0
 18 19  1  0
 19 20  2  0
 20 21  1  0
 21 22  2  0
 16  1  1  0
 22 17  1  0
 16  4  1  0
 15  7  1  0
 15 10  1  0
  1 23  1  0
  1 24  1  0
  3 25  1  0
  6 26  1  0
  9 27  1  0
 11 28  1  0
 12 29  1  0
 13 30  1  0
 18 31  1  0
 19 32  1  0
 20 33  1  0
 22 34  1  0
M  END
