
     RDKit          3D

 48 55  0  0  0  0  0  0  0  0999 V2000
   -1.8925   -0.2550    0.0277 C   0  0  0  0  0  0  0  0  0  0  0  0
   -2.7792   -1.4609    0.3314 C   0  0  0  0  0  0  0  0  0  0  0  0
   -2.0203   -2.4992    0.7256 C   0  0  0  0  0  0  0  0  0  0  0  0
   -0.6354   -2.0762    0.7093 C   0  0  0  0  0  0  0  0  0  0  0  0
    0.3536   -2.8683    1.0897 N   0  0  0  0  0  0  0  0  0  0  0  0
    1.5696   -2.2878    1.0008 C   0  0  0  0  0  0  0  0  0  0  0  0
    1.8776   -0.9885    0.5205 C   0  0  0  0  0  0  0  0  0  0  0  0
    0.7809   -0.1372    0.2148 C   0  0  0  0  0  0  0  0  0  0  0  0
   -0.5003   -0.7556    0.2943 C   0  0  0  0  0  0  0  0  0  0  0  0
    1.0525    1.2489   -0.1146 C   0  0  0  0  0  0  0  0  0  0  0  0
    0.0327    2.1757   -0.4731 C   0  0  0  0  0  0  0  0  0  0  0  0
    0.2610    3.5239   -0.7479 C   0  0  0  0  0  0  0  0  0  0  0  0
    1.5415    4.0124   -0.6799 C   0  0  0  0  0  0  0  0  0  0  0  0
    2.5767    3.1422   -0.3492 C   0  0  0  0  0  0  0  0  0  0  0  0
    2.3889    1.7575   -0.0633 C   0  0  0  0  0  0  0  0  0  0  0  0
    3.4984    0.8947    0.2303 C   0  0  0  0  0  0  0  0  0  0  0  0
    4.8663    1.4056    0.3366 C   0  0  0  0  0  0  0  0  0  0  0  0
    6.0520    0.6658    0.5164 C   0  0  0  0  0  0  0  0  0  0  0  0
    5.7811   -0.6859    0.5157 C   0  0  0  0  0  0  0  0  0  0  0  0
    6.8012   -1.6043    0.5669 C   0  0  0  0  0  0  0  0  0  0  0  0
    6.1988   -3.1979    0.4226 S   0  0  0  0  0  0  0  0  0  0  0  0
    4.5792   -2.6348    0.2867 C   0  0  0  0  0  0  0  0  0  0  0  0
    4.4644   -1.2693    0.4507 C   0  0  0  0  0  0  0  0  0  0  0  0
    3.2330   -0.5059    0.4075 C   0  0  0  0  0  0  0  0  0  0  0  0
   -4.2104   -1.5152    0.2272 C   0  0  0  0  0  0  0  0  0  0  0  0
   -5.1230   -2.9498    0.5968 S   0  0  0  0  0  0  0  0  0  0  0  0
   -6.6288   -2.2221    0.2426 C   0  0  0  0  0  0  0  0  0  0  0  0
   -6.4708   -0.9215   -0.1496 C   0  0  0  0  0  0  0  0  0  0  0  0
   -7.5195   -0.1212   -0.4880 N   0  0  0  0  0  0  0  0  0  0  0  0
   -7.0846    1.1189   -0.8379 C   0  0  0  0  0  0  0  0  0  0  0  0
   -5.7462    1.5278   -0.8522 C   0  0  0  0  0  0  0  0  0  0  0  0
   -4.6813    0.7474   -0.5186 N   0  0  0  0  0  0  0  0  0  0  0  0
   -5.0862   -0.5103   -0.1605 C   0  0  0  0  0  0  0  0  0  0  0  0
   -2.1487    0.5639    0.7076 H   0  0  0  0  0  0  0  0  0  0  0  0
   -2.0077    0.0280   -1.0236 H   0  0  0  0  0  0  0  0  0  0  0  0
   -2.3068   -3.4950    1.0194 H   0  0  0  0  0  0  0  0  0  0  0  0
    2.3390   -2.9290    1.4178 H   0  0  0  0  0  0  0  0  0  0  0  0
   -1.0020    1.8780   -0.5602 H   0  0  0  0  0  0  0  0  0  0  0  0
   -0.5663    4.1761   -1.0136 H   0  0  0  0  0  0  0  0  0  0  0  0
    1.7481    5.0574   -0.8923 H   0  0  0  0  0  0  0  0  0  0  0  0
    3.5628    3.5954   -0.3440 H   0  0  0  0  0  0  0  0  0  0  0  0
    5.0393    2.4791    0.2788 H   0  0  0  0  0  0  0  0  0  0  0  0
    7.0301    1.1237    0.5745 H   0  0  0  0  0  0  0  0  0  0  0  0
    7.8664   -1.4335    0.6453 H   0  0  0  0  0  0  0  0  0  0  0  0
    3.8281   -3.3771    0.0657 H   0  0  0  0  0  0  0  0  0  0  0  0
   -7.5506   -2.7771    0.3376 H   0  0  0  0  0  0  0  0  0  0  0  0
   -7.8701    1.8141   -1.1212 H   0  0  0  0  0  0  0  0  0  0  0  0
   -5.4924    2.5423   -1.1471 H   0  0  0  0  0  0  0  0  0  0  0  0
  1  2  1  0
  2  3  2  0
  3  4  1  0
  4  5  2  0
  5  6  1  0
  6  7  2  0
  7  8  1  0
  8  9  2  0
  8 10  1  0
 10 11  2  0
 11 12  1  0
 12 13  2  0
 13 14  1  0
 14 15  2  0
 15 16  1  0
 16 17  1  0
 17 18  2  0
 18 19  1  0
 19 20  2  0
 20 21  1  0
 21 22  1  0
 22 23  2  0
 23 24  1  0
  2 25  1  0
 25 26  1  0
 26 27  1  0
 27 28  2  0
 28 29  1  0
 29 30  2  0
 30 31  1  0
 31 32  2  0
 32 33  1  0
  9  1  1  0
 15 10  1  0
 24 16  2  0
 33 25  2  0
  9  4  1  0
 23 19  1  0
 33 28  1  0
 24  7  1  0
  1 34  1  0
  1 35  1  0
  3 36  1  0
  6 37  1  0
 11 38  1  0
 12 39  1  0
 13 40  1  0
 14 41  1  0
 17 42  1  0
 18 43  1  0
 20 44  1  0
 22 45  1  0
 27 46  1  0
 30 47  1  0
 31 48  1  0
M  END
