
     RDKit          3D

 43 49  0  0  0  0  0  0  0  0999 V2000
   -1.4188   -0.0312   -0.5683 C   0  0  0  0  0  0  0  0  0  0  0  0
   -2.3352   -0.4357    0.5743 C   0  0  0  0  0  0  0  0  0  0  0  0
   -1.6231   -0.6541    1.7000 C   0  0  0  0  0  0  0  0  0  0  0  0
   -0.2244   -0.4196    1.4049 C   0  0  0  0  0  0  0  0  0  0  0  0
    0.7639   -0.5420    2.2856 N   0  0  0  0  0  0  0  0  0  0  0  0
    2.0008   -0.2709    1.7842 C   0  0  0  0  0  0  0  0  0  0  0  0
    2.3199    0.1164    0.4556 C   0  0  0  0  0  0  0  0  0  0  0  0
    1.2045    0.2190   -0.4035 C   0  0  0  0  0  0  0  0  0  0  0  0
    1.4219    0.5925   -1.7226 C   0  0  0  0  0  0  0  0  0  0  0  0
    2.6283    0.8686   -2.2558 N   0  0  0  0  0  0  0  0  0  0  0  0
    3.7133    0.7861   -1.4856 C   0  0  0  0  0  0  0  0  0  0  0  0
    4.9173    1.0992   -2.1591 C   0  0  0  0  0  0  0  0  0  0  0  0
    6.2077    1.0959   -1.6012 C   0  0  0  0  0  0  0  0  0  0  0  0
    6.1678    0.7375   -0.2647 C   0  0  0  0  0  0  0  0  0  0  0  0
    7.3219    0.6704    0.4759 C   0  0  0  0  0  0  0  0  0  0  0  0
    6.9925    0.2066    2.0874 S   0  0  0  0  0  0  0  0  0  0  0  0
    5.3010    0.0992    1.7784 C   0  0  0  0  0  0  0  0  0  0  0  0
    4.9681    0.4064    0.4786 C   0  0  0  0  0  0  0  0  0  0  0  0
    3.6386    0.4101   -0.0967 C   0  0  0  0  0  0  0  0  0  0  0  0
   -0.0717   -0.0531    0.0849 C   0  0  0  0  0  0  0  0  0  0  0  0
   -3.7898   -0.5696    0.4683 C   0  0  0  0  0  0  0  0  0  0  0  0
   -4.6413   -0.9474    1.5508 C   0  0  0  0  0  0  0  0  0  0  0  0
   -6.0744   -1.0878    1.4792 C   0  0  0  0  0  0  0  0  0  0  0  0
   -6.8320   -0.8670    0.3139 C   0  0  0  0  0  0  0  0  0  0  0  0
   -5.9993   -0.5010   -0.7313 C   0  0  0  0  0  0  0  0  0  0  0  0
   -6.4012   -0.2120   -2.0066 C   0  0  0  0  0  0  0  0  0  0  0  0
   -5.3105    0.1064   -2.7607 O   0  0  0  0  0  0  0  0  0  0  0  0
   -4.2095    0.0173   -1.9527 C   0  0  0  0  0  0  0  0  0  0  0  0
   -4.5715   -0.3558   -0.6805 C   0  0  0  0  0  0  0  0  0  0  0  0
   -1.4515   -0.7618   -1.3825 H   0  0  0  0  0  0  0  0  0  0  0  0
   -1.6465    0.9788   -0.9228 H   0  0  0  0  0  0  0  0  0  0  0  0
   -1.9546   -0.9504    2.6802 H   0  0  0  0  0  0  0  0  0  0  0  0
    2.7608   -0.3864    2.5426 H   0  0  0  0  0  0  0  0  0  0  0  0
    0.6012    0.6877   -2.4295 H   0  0  0  0  0  0  0  0  0  0  0  0
    4.8358    1.3696   -3.2147 H   0  0  0  0  0  0  0  0  0  0  0  0
    7.0934    1.3455   -2.1698 H   0  0  0  0  0  0  0  0  0  0  0  0
    8.3398    0.8662    0.1664 H   0  0  0  0  0  0  0  0  0  0  0  0
    4.6965   -0.1909    2.6177 H   0  0  0  0  0  0  0  0  0  0  0  0
   -4.1977   -1.1530    2.5258 H   0  0  0  0  0  0  0  0  0  0  0  0
   -6.5997   -1.3840    2.3885 H   0  0  0  0  0  0  0  0  0  0  0  0
   -7.9061   -0.9741    0.2673 H   0  0  0  0  0  0  0  0  0  0  0  0
   -7.3511   -0.1828   -2.5212 H   0  0  0  0  0  0  0  0  0  0  0  0
   -3.2849    0.2515   -2.4559 H   0  0  0  0  0  0  0  0  0  0  0  0
  1  2  1  0
  2  3  2  0
  3  4  1  0
  4  5  2  0
  5  6  1  0
  6  7  2  0
  7  8  1  0
  8  9  1  0
  9 10  2  0
 10 11  1  0
 11 12  1  0
 12 13  2  0
 13 14  1  0
 14 15  2  0
 15 16  1  0
 16 17  1  0
 17 18  2  0
 18 19  1  0
  8 20  2  0
  2 21  1  0
 21 22  2  0
 22 23  1  0
 23 24  2  0
 24 25  1  0
 25 26  2  0
 26 27  1  0
 27 28  1  0
 28 29  2  0
 20  1  1  0
 29 21  1  0
 20  4  1  0
 29 25  1  0
 19  7  1  0
 19 11  2  0
 18 14  1  0
  1 30  1  0
  1 31  1  0
  3 32  1  0
  6 33  1  0
  9 34  1  0
 12 35  1  0
 13 36  1  0
 15 37  1  0
 17 38  1  0
 22 39  1  0
 23 40  1  0
 24 41  1  0
 26 42  1  0
 28 43  1  0
M  END
