
     RDKit          3D

 42 48  0  0  0  0  0  0  0  0999 V2000
    1.2340   -0.3219    0.4093 C   0  0  0  0  0  0  0  0  0  0  0  0
    2.3933    0.3462   -0.3257 C   0  0  0  0  0  0  0  0  0  0  0  0
    1.9299    1.1675   -1.2890 C   0  0  0  0  0  0  0  0  0  0  0  0
    0.4799    1.1156   -1.2746 C   0  0  0  0  0  0  0  0  0  0  0  0
   -0.2992    1.8139   -2.1054 N   0  0  0  0  0  0  0  0  0  0  0  0
   -1.6334    1.6241   -1.9277 C   0  0  0  0  0  0  0  0  0  0  0  0
   -2.2418    0.7797   -0.9713 C   0  0  0  0  0  0  0  0  0  0  0  0
   -3.6756    0.6228   -0.8346 C   0  0  0  0  0  0  0  0  0  0  0  0
   -5.0795    1.4471   -1.8301 Si  0  0  0  0  0  4  0  0  0  0  0  0
   -6.3421    0.5150   -0.7927 C   0  0  0  0  0  0  0  0  0  0  0  0
   -5.7830   -0.2773    0.1395 C   0  0  0  0  0  0  0  0  0  0  0  0
   -4.3264   -0.2223    0.1211 C   0  0  0  0  0  0  0  0  0  0  0  0
   -3.4276   -0.8987    0.9302 C   0  0  0  0  0  0  0  0  0  0  0  0
   -3.7081   -1.7818    1.9413 C   0  0  0  0  0  0  0  0  0  0  0  0
   -2.5009   -2.1966    2.4578 N   0  0  0  0  0  0  0  0  0  0  0  0
   -1.4583   -1.5880    1.7874 C   0  0  0  0  0  0  0  0  0  0  0  0
   -2.0048   -0.7707    0.8266 C   0  0  0  0  0  0  0  0  0  0  0  0
   -1.3310    0.0636   -0.1160 C   0  0  0  0  0  0  0  0  0  0  0  0
    0.0455    0.2495   -0.2878 C   0  0  0  0  0  0  0  0  0  0  0  0
    3.7915    0.0637    0.0448 C   0  0  0  0  0  0  0  0  0  0  0  0
    4.1314   -0.8347    1.0905 C   0  0  0  0  0  0  0  0  0  0  0  0
    5.4559   -1.1417    1.4871 C   0  0  0  0  0  0  0  0  0  0  0  0
    6.5835   -0.5801    0.8770 C   0  0  0  0  0  0  0  0  0  0  0  0
    6.3313    0.3274   -0.1764 C   0  0  0  0  0  0  0  0  0  0  0  0
    7.2784    0.9658   -0.8806 N   0  0  0  0  0  0  0  0  0  0  0  0
    6.4839    1.9059   -1.9890 S   0  0  0  0  0  0  0  0  0  0  0  0
    4.9105    1.5474   -1.6272 N   0  0  0  0  0  0  0  0  0  0  0  0
    4.9144    0.6650   -0.6112 C   0  0  0  0  0  0  0  0  0  0  0  0
    1.2685   -1.4090    0.2852 H   0  0  0  0  0  0  0  0  0  0  0  0
    1.2315   -0.0432    1.4680 H   0  0  0  0  0  0  0  0  0  0  0  0
    2.4662    1.7867   -1.9874 H   0  0  0  0  0  0  0  0  0  0  0  0
   -2.2310    2.2092   -2.6221 H   0  0  0  0  0  0  0  0  0  0  0  0
   -5.0830    1.0168   -3.2498 H   0  0  0  0  0  0  0  0  0  0  0  0
   -5.1339    2.9129   -1.6080 H   0  0  0  0  0  0  0  0  0  0  0  0
   -7.3991    0.6409   -0.9708 H   0  0  0  0  0  0  0  0  0  0  0  0
   -6.3316   -0.8950    0.8360 H   0  0  0  0  0  0  0  0  0  0  0  0
   -4.6383   -2.1568    2.3455 H   0  0  0  0  0  0  0  0  0  0  0  0
   -2.3940   -2.8536    3.2199 H   0  0  0  0  0  0  0  0  0  0  0  0
   -0.4412   -1.8089    2.0740 H   0  0  0  0  0  0  0  0  0  0  0  0
    3.3374   -1.3374    1.6436 H   0  0  0  0  0  0  0  0  0  0  0  0
    5.6041   -1.8477    2.3049 H   0  0  0  0  0  0  0  0  0  0  0  0
    7.5928   -0.8215    1.1877 H   0  0  0  0  0  0  0  0  0  0  0  0
  1  2  1  0
  2  3  2  0
  3  4  1  0
  4  5  2  0
  5  6  1  0
  6  7  2  0
  7  8  1  0
  8  9  1  0
  9 10  1  0
 10 11  2  0
 11 12  1  0
 12 13  1  0
 13 14  2  0
 14 15  1  0
 15 16  1  0
 16 17  2  0
 17 18  1  0
 18 19  2  0
  2 20  1  0
 20 21  2  0
 21 22  1  0
 22 23  2  0
 23 24  1  0
 24 25  2  0
 25 26  1  0
 26 27  1  0
 27 28  2  0
 19  1  1  0
 28 20  1  0
 19  4  1  0
 28 24  1  0
 18  7  1  0
 12  8  2  0
 17 13  1  0
  1 29  1  0
  1 30  1  0
  3 31  1  0
  6 32  1  0
  9 33  1  0
  9 34  1  0
 10 35  1  0
 11 36  1  0
 14 37  1  0
 15 38  1  0
 16 39  1  0
 21 40  1  0
 22 41  1  0
 23 42  1  0
M  END
