
     RDKit          3D

 44 50  0  0  0  0  0  0  0  0999 V2000
    2.0962    1.1758    3.5963 Si  0  0  0  0  0  4  0  0  0  0  0  0
    3.0470    1.4134    2.0124 C   0  0  0  0  0  0  0  0  0  0  0  0
    2.3268    1.0390    0.9316 C   0  0  0  0  0  0  0  0  0  0  0  0
    2.7518    1.2366   -0.4802 C   0  0  0  0  0  0  0  0  0  0  0  0
    1.8362    1.0232   -1.4592 C   0  0  0  0  0  0  0  0  0  0  0  0
    0.5665    0.5162   -1.0825 C   0  0  0  0  0  0  0  0  0  0  0  0
   -0.4265    0.2979   -1.9895 N   0  0  0  0  0  0  0  0  0  0  0  0
   -1.4788   -0.2670   -1.3335 C   0  0  0  0  0  0  0  0  0  0  0  0
   -2.8473   -0.6649   -1.9133 C   0  0  0  0  0  0  0  0  0  0  0  0
   -3.3335   -0.4902   -3.1729 N   0  0  0  0  0  0  0  0  0  0  0  0
   -4.6135   -0.9814   -3.2225 C   0  0  0  0  0  0  0  0  0  0  0  0
   -4.9234   -1.4801   -1.9728 C   0  0  0  0  0  0  0  0  0  0  0  0
   -3.7943   -1.2821   -1.1239 C   0  0  0  0  0  0  0  0  0  0  0  0
   -3.4295   -1.5784    0.2198 C   0  0  0  0  0  0  0  0  0  0  0  0
   -4.3630   -2.2714    1.0163 C   0  0  0  0  0  0  0  0  0  0  0  0
   -4.0382   -2.6614    2.3145 C   0  0  0  0  0  0  0  0  0  0  0  0
   -2.7747   -2.3890    2.8273 C   0  0  0  0  0  0  0  0  0  0  0  0
   -1.8350   -1.6919    2.0610 C   0  0  0  0  0  0  0  0  0  0  0  0
   -2.1366   -1.2251    0.7668 C   0  0  0  0  0  0  0  0  0  0  0  0
   -1.1674   -0.4814    0.0057 C   0  0  0  0  0  0  0  0  0  0  0  0
    0.1009    0.1647    0.1764 C   0  0  0  0  0  0  0  0  0  0  0  0
    0.9567    0.5096    1.2752 C   0  0  0  0  0  0  0  0  0  0  0  0
    0.6547    0.5796    2.5856 C   0  0  0  0  0  0  0  0  0  0  0  0
    4.0559    1.6500   -0.9229 C   0  0  0  0  0  0  0  0  0  0  0  0
    5.3147    1.3100   -0.4324 C   0  0  0  0  0  0  0  0  0  0  0  0
    6.2905    1.9677   -1.2174 C   0  0  0  0  0  0  0  0  0  0  0  0
    5.5936    2.6732   -2.1625 C   0  0  0  0  0  0  0  0  0  0  0  0
    4.2619    2.4858   -2.0066 O   0  0  0  0  0  0  0  0  0  0  0  0
    2.6773    0.1078    4.4452 H   0  0  0  0  0  0  0  0  0  0  0  0
    1.8221    2.4571    4.2895 H   0  0  0  0  0  0  0  0  0  0  0  0
    4.0197    1.8766    2.0296 H   0  0  0  0  0  0  0  0  0  0  0  0
    2.0771    1.1706   -2.5079 H   0  0  0  0  0  0  0  0  0  0  0  0
   -0.3847    0.5037   -2.9768 H   0  0  0  0  0  0  0  0  0  0  0  0
   -2.8432   -0.0571   -3.9424 H   0  0  0  0  0  0  0  0  0  0  0  0
   -5.1900   -0.9383   -4.1366 H   0  0  0  0  0  0  0  0  0  0  0  0
   -5.8626   -1.9440   -1.7031 H   0  0  0  0  0  0  0  0  0  0  0  0
   -5.3448   -2.5294    0.6283 H   0  0  0  0  0  0  0  0  0  0  0  0
   -4.7636   -3.2039    2.9149 H   0  0  0  0  0  0  0  0  0  0  0  0
   -2.5086   -2.7330    3.8236 H   0  0  0  0  0  0  0  0  0  0  0  0
   -0.8409   -1.5720    2.4733 H   0  0  0  0  0  0  0  0  0  0  0  0
   -0.2950    0.3927    3.0551 H   0  0  0  0  0  0  0  0  0  0  0  0
    5.4988    0.6448    0.4002 H   0  0  0  0  0  0  0  0  0  0  0  0
    7.3649    1.9254   -1.1106 H   0  0  0  0  0  0  0  0  0  0  0  0
    5.8818    3.3204   -2.9789 H   0  0  0  0  0  0  0  0  0  0  0  0
  1  2  1  0
  2  3  2  0
  3  4  1  0
  4  5  2  0
  5  6  1  0
  6  7  1  0
  7  8  1  0
  8  9  2  0
  9 10  1  0
 10 11  1  0
 11 12  2  0
 12 13  1  0
 13 14  2  0
 14 15  1  0
 15 16  2  0
 16 17  1  0
 17 18  2  0
 18 19  1  0
 19 20  2  0
 20 21  1  0
 21 22  1  0
 22 23  2  0
  4 24  1  0
 24 25  2  0
 25 26  1  0
 26 27  2  0
 27 28  1  0
 23  1  1  0
 28 24  1  0
 22  3  1  0
 21  6  2  0
 20  8  1  0
 13  9  1  0
 19 14  1  0
  1 29  1  0
  1 30  1  0
  2 31  1  0
  5 32  1  0
  7 33  1  0
 10 34  1  0
 11 35  1  0
 12 36  1  0
 15 37  1  0
 16 38  1  0
 17 39  1  0
 18 40  1  0
 23 41  1  0
 25 42  1  0
 26 43  1  0
 27 44  1  0
M  END
