
     RDKit          3D

 40 46  0  0  0  0  0  0  0  0999 V2000
   -1.7940    0.9624   -0.1320 C   0  0  0  0  0  0  0  0  0  0  0  0
   -2.7847   -0.2173   -0.0046 C   0  0  0  0  0  0  0  0  0  0  0  0
   -2.1374   -1.4086    0.1008 C   0  0  0  0  0  0  0  0  0  0  0  0
   -0.7606   -1.1182    0.0536 C   0  0  0  0  0  0  0  0  0  0  0  0
    0.3928   -1.8335    0.1062 O   0  0  0  0  0  0  0  0  0  0  0  0
    1.4245   -0.9138    0.0033 C   0  0  0  0  0  0  0  0  0  0  0  0
    0.8506    0.3467   -0.1099 C   0  0  0  0  0  0  0  0  0  0  0  0
   -0.5157    0.2316   -0.0797 C   0  0  0  0  0  0  0  0  0  0  0  0
    1.7247    1.4467   -0.2279 C   0  0  0  0  0  0  0  0  0  0  0  0
    1.4470    2.7731   -0.3516 C   0  0  0  0  0  0  0  0  0  0  0  0
    2.6847    3.3790   -0.4270 N   0  0  0  0  0  0  0  0  0  0  0  0
    3.6934    2.4289   -0.3497 C   0  0  0  0  0  0  0  0  0  0  0  0
    3.1070    1.1871   -0.2222 C   0  0  0  0  0  0  0  0  0  0  0  0
    3.7642   -0.0655   -0.1108 C   0  0  0  0  0  0  0  0  0  0  0  0
    5.1804   -0.2574   -0.1120 C   0  0  0  0  0  0  0  0  0  0  0  0
    5.7723   -1.5251    0.0017 C   0  0  0  0  0  0  0  0  0  0  0  0
    4.8944   -2.6310    0.1203 C   0  0  0  0  0  0  0  0  0  0  0  0
    5.2829   -3.9103    0.2379 N   0  0  0  0  0  0  0  0  0  0  0  0
    3.8959   -4.8136    0.3440 S   0  0  0  0  0  0  0  0  0  0  0  0
    2.7447   -3.6292    0.2461 N   0  0  0  0  0  0  0  0  0  0  0  0
    3.3875   -2.4539    0.1242 C   0  0  0  0  0  0  0  0  0  0  0  0
    2.8182   -1.1556    0.0072 C   0  0  0  0  0  0  0  0  0  0  0  0
   -4.2386   -0.0389   -0.0012 C   0  0  0  0  0  0  0  0  0  0  0  0
   -4.8348    1.2147   -0.1133 C   0  0  0  0  0  0  0  0  0  0  0  0
   -6.2262    1.3085   -0.1025 C   0  0  0  0  0  0  0  0  0  0  0  0
   -6.9865    0.1538    0.0194 C   0  0  0  0  0  0  0  0  0  0  0  0
   -6.3201   -1.0528    0.1260 C   0  0  0  0  0  0  0  0  0  0  0  0
   -4.9744   -1.1710    0.1182 N   0  0  0  0  0  0  0  0  0  0  0  0
   -1.9192    1.4853   -1.0850 H   0  0  0  0  0  0  0  0  0  0  0  0
   -1.8940    1.6577    0.7069 H   0  0  0  0  0  0  0  0  0  0  0  0
   -2.5696   -2.3924    0.2016 H   0  0  0  0  0  0  0  0  0  0  0  0
    0.5316    3.3458   -0.3939 H   0  0  0  0  0  0  0  0  0  0  0  0
    2.8379    4.3746   -0.5248 H   0  0  0  0  0  0  0  0  0  0  0  0
    4.7263    2.7459   -0.3946 H   0  0  0  0  0  0  0  0  0  0  0  0
    5.8379    0.6056   -0.2042 H   0  0  0  0  0  0  0  0  0  0  0  0
    6.8475   -1.6600   -0.0003 H   0  0  0  0  0  0  0  0  0  0  0  0
   -4.2459    2.1196   -0.2087 H   0  0  0  0  0  0  0  0  0  0  0  0
   -6.7105    2.2771   -0.1888 H   0  0  0  0  0  0  0  0  0  0  0  0
   -8.0698    0.1918    0.0312 H   0  0  0  0  0  0  0  0  0  0  0  0
   -6.8645   -1.9877    0.2238 H   0  0  0  0  0  0  0  0  0  0  0  0
  1  2  1  0
  2  3  2  0
  3  4  1  0
  4  5  1  0
  5  6  1  0
  6  7  2  0
  7  8  1  0
  7  9  1  0
  9 10  2  0
 10 11  1  0
 11 12  1  0
 12 13  2  0
 13 14  1  0
 14 15  1  0
 15 16  2  0
 16 17  1  0
 17 18  2  0
 18 19  1  0
 19 20  1  0
 20 21  2  0
 21 22  1  0
  2 23  1  0
 23 24  2  0
 24 25  1  0
 25 26  2  0
 26 27  1  0
 27 28  2  0
  8  1  1  0
 13  9  1  0
 22 14  2  0
 28 23  1  0
  8  4  2  0
 21 17  1  0
 22  6  1  0
  1 29  1  0
  1 30  1  0
  3 31  1  0
 10 32  1  0
 11 33  1  0
 12 34  1  0
 15 35  1  0
 16 36  1  0
 24 37  1  0
 25 38  1  0
 26 39  1  0
 27 40  1  0
M  END
