
     RDKit          3D

 38 43  0  0  0  0  0  0  0  0999 V2000
   -0.5287    0.3211    1.4263 C   0  0  0  0  0  0  0  0  0  0  0  0
   -1.5545   -0.2830    0.4339 C   0  0  0  0  0  0  0  0  0  0  0  0
   -0.9597   -0.6979   -0.7145 C   0  0  0  0  0  0  0  0  0  0  0  0
    0.4084   -0.3966   -0.5790 C   0  0  0  0  0  0  0  0  0  0  0  0
    1.5184   -0.5351   -1.3343 O   0  0  0  0  0  0  0  0  0  0  0  0
    2.5502   -0.0180   -0.5807 C   0  0  0  0  0  0  0  0  0  0  0  0
    2.0822    0.4457    0.6527 C   0  0  0  0  0  0  0  0  0  0  0  0
    3.0023    1.0004    1.5366 C   0  0  0  0  0  0  0  0  0  0  0  0
    4.3162    1.0826    1.1979 N   0  0  0  0  0  0  0  0  0  0  0  0
    4.7488    0.6299    0.0030 C   0  0  0  0  0  0  0  0  0  0  0  0
    6.0934    0.7205   -0.3298 C   0  0  0  0  0  0  0  0  0  0  0  0
    6.5849    0.2620   -1.5610 C   0  0  0  0  0  0  0  0  0  0  0  0
    5.7214   -0.3055   -2.4965 C   0  0  0  0  0  0  0  0  0  0  0  0
    4.3670   -0.4147   -2.2018 C   0  0  0  0  0  0  0  0  0  0  0  0
    3.8985    0.0535   -0.9582 C   0  0  0  0  0  0  0  0  0  0  0  0
    0.7080    0.1898    0.6264 C   0  0  0  0  0  0  0  0  0  0  0  0
   -2.9611   -0.3890    0.7826 C   0  0  0  0  0  0  0  0  0  0  0  0
   -3.4534   -0.7125    2.0749 C   0  0  0  0  0  0  0  0  0  0  0  0
   -4.8512   -0.8093    2.4175 C   0  0  0  0  0  0  0  0  0  0  0  0
   -5.9108   -0.5814    1.5117 C   0  0  0  0  0  0  0  0  0  0  0  0
   -5.4084   -0.2479    0.2625 C   0  0  0  0  0  0  0  0  0  0  0  0
   -6.1375    0.0666   -0.8521 C   0  0  0  0  0  0  0  0  0  0  0  0
   -5.2875    0.3714   -1.8786 O   0  0  0  0  0  0  0  0  0  0  0  0
   -4.0084    0.2467   -1.4071 C   0  0  0  0  0  0  0  0  0  0  0  0
   -4.0271   -0.1537   -0.0941 C   0  0  0  0  0  0  0  0  0  0  0  0
   -0.7621    1.3675    1.6444 H   0  0  0  0  0  0  0  0  0  0  0  0
   -0.4680   -0.2621    2.3497 H   0  0  0  0  0  0  0  0  0  0  0  0
   -1.4040   -1.1826   -1.5692 H   0  0  0  0  0  0  0  0  0  0  0  0
    2.7341    1.3862    2.5134 H   0  0  0  0  0  0  0  0  0  0  0  0
    6.7817    1.1606    0.3881 H   0  0  0  0  0  0  0  0  0  0  0  0
    7.6455    0.3512   -1.7837 H   0  0  0  0  0  0  0  0  0  0  0  0
    6.1040   -0.6602   -3.4500 H   0  0  0  0  0  0  0  0  0  0  0  0
    3.6822   -0.8550   -2.9218 H   0  0  0  0  0  0  0  0  0  0  0  0
   -2.7406   -0.9249    2.8727 H   0  0  0  0  0  0  0  0  0  0  0  0
   -5.1028   -1.0772    3.4450 H   0  0  0  0  0  0  0  0  0  0  0  0
   -6.9550   -0.6520    1.7802 H   0  0  0  0  0  0  0  0  0  0  0  0
   -7.1910    0.1342   -1.0835 H   0  0  0  0  0  0  0  0  0  0  0  0
   -3.2354    0.4834   -2.1239 H   0  0  0  0  0  0  0  0  0  0  0  0
  1  2  1  0
  2  3  2  0
  3  4  1  0
  4  5  1  0
  5  6  1  0
  6  7  2  0
  7  8  1  0
  8  9  2  0
  9 10  1  0
 10 11  2  0
 11 12  1  0
 12 13  2  0
 13 14  1  0
 14 15  2  0
  7 16  1  0
  2 17  1  0
 17 18  2  0
 18 19  1  0
 19 20  2  0
 20 21  1  0
 21 22  2  0
 22 23  1  0
 23 24  1  0
 24 25  2  0
 16  1  1  0
 25 17  1  0
 16  4  2  0
 25 21  1  0
 15  6  1  0
 15 10  1  0
  1 26  1  0
  1 27  1  0
  3 28  1  0
  8 29  1  0
 11 30  1  0
 12 31  1  0
 13 32  1  0
 14 33  1  0
 18 34  1  0
 19 35  1  0
 20 36  1  0
 22 37  1  0
 24 38  1  0
M  END
