
     RDKit          3D

 37 42  0  0  0  0  0  0  0  0999 V2000
   -0.5277   -1.3299   -0.0864 C   0  0  0  0  0  0  0  0  0  0  0  0
   -1.4241   -0.1261   -0.4616 C   0  0  0  0  0  0  0  0  0  0  0  0
   -0.6985    0.9967   -0.6984 C   0  0  0  0  0  0  0  0  0  0  0  0
    0.6469    0.6414   -0.4872 C   0  0  0  0  0  0  0  0  0  0  0  0
    1.8425    1.2668   -0.5425 O   0  0  0  0  0  0  0  0  0  0  0  0
    2.7735    0.3129   -0.2133 C   0  0  0  0  0  0  0  0  0  0  0  0
    4.1341    0.4767   -0.1344 C   0  0  0  0  0  0  0  0  0  0  0  0
    5.1930    1.9186   -0.4122 Si  0  0  0  0  0  4  0  0  0  0  0  0
    6.6791    0.8143    0.0048 C   0  0  0  0  0  0  0  0  0  0  0  0
    6.3083   -0.4482    0.2975 C   0  0  0  0  0  0  0  0  0  0  0  0
    4.8541   -0.6608    0.2230 C   0  0  0  0  0  0  0  0  0  0  0  0
    4.3247   -1.8696    0.4877 N   0  0  0  0  0  0  0  0  0  0  0  0
    2.9740   -2.0104    0.4042 C   0  0  0  0  0  0  0  0  0  0  0  0
    2.1644   -0.9240    0.0517 C   0  0  0  0  0  0  0  0  0  0  0  0
    0.7999   -0.6787   -0.1337 C   0  0  0  0  0  0  0  0  0  0  0  0
   -2.8657   -0.2678   -0.5748 C   0  0  0  0  0  0  0  0  0  0  0  0
   -3.4926   -1.2965   -1.3209 C   0  0  0  0  0  0  0  0  0  0  0  0
   -4.9116   -1.4494   -1.4456 C   0  0  0  0  0  0  0  0  0  0  0  0
   -5.8524   -0.5979   -0.8310 C   0  0  0  0  0  0  0  0  0  0  0  0
   -5.2355    0.4036   -0.0819 C   0  0  0  0  0  0  0  0  0  0  0  0
   -5.9561    1.3372    0.6210 C   0  0  0  0  0  0  0  0  0  0  0  0
   -4.9201    2.4128    1.4682 S   0  0  0  0  0  0  0  0  0  0  0  0
   -3.5050    1.6213    0.8928 C   0  0  0  0  0  0  0  0  0  0  0  0
   -3.8051    0.5739    0.0513 C   0  0  0  0  0  0  0  0  0  0  0  0
   -0.7638   -1.6983    0.9163 H   0  0  0  0  0  0  0  0  0  0  0  0
   -0.6043   -2.1359   -0.8219 H   0  0  0  0  0  0  0  0  0  0  0  0
   -1.0479    1.9711   -1.0025 H   0  0  0  0  0  0  0  0  0  0  0  0
    5.0550    3.0004    0.5949 H   0  0  0  0  0  0  0  0  0  0  0  0
    5.2701    2.3767   -1.8221 H   0  0  0  0  0  0  0  0  0  0  0  0
    7.6831    1.2090   -0.0077 H   0  0  0  0  0  0  0  0  0  0  0  0
    6.9706   -1.2585    0.5655 H   0  0  0  0  0  0  0  0  0  0  0  0
    2.5802   -2.9961    0.6240 H   0  0  0  0  0  0  0  0  0  0  0  0
   -2.8693   -2.0135   -1.8567 H   0  0  0  0  0  0  0  0  0  0  0  0
   -5.2839   -2.2733   -2.0560 H   0  0  0  0  0  0  0  0  0  0  0  0
   -6.9209   -0.7321   -0.9369 H   0  0  0  0  0  0  0  0  0  0  0  0
   -7.0288    1.4507    0.6972 H   0  0  0  0  0  0  0  0  0  0  0  0
   -2.5402    1.9829    1.2187 H   0  0  0  0  0  0  0  0  0  0  0  0
  1  2  1  0
  2  3  2  0
  3  4  1  0
  4  5  1  0
  5  6  1  0
  6  7  2  0
  7  8  1  0
  8  9  1  0
  9 10  2  0
 10 11  1  0
 11 12  2  0
 12 13  1  0
 13 14  2  0
 14 15  1  0
  2 16  1  0
 16 17  2  0
 17 18  1  0
 18 19  2  0
 19 20  1  0
 20 21  2  0
 21 22  1  0
 22 23  1  0
 23 24  2  0
 15  1  1  0
 24 16  1  0
 15  4  2  0
 24 20  1  0
 14  6  1  0
 11  7  1  0
  1 25  1  0
  1 26  1  0
  3 27  1  0
  8 28  1  0
  8 29  1  0
  9 30  1  0
 10 31  1  0
 13 32  1  0
 17 33  1  0
 18 34  1  0
 19 35  1  0
 21 36  1  0
 23 37  1  0
M  END
