
     RDKit          3D

 40 46  0  0  0  0  0  0  0  0999 V2000
    2.9845    0.0016    0.4791 C   0  0  0  0  0  0  0  0  0  0  0  0
    3.5860   -0.9570   -0.5735 C   0  0  0  0  0  0  0  0  0  0  0  0
    2.6077   -1.4842   -1.3545 C   0  0  0  0  0  0  0  0  0  0  0  0
    1.3852   -0.9483   -0.9031 C   0  0  0  0  0  0  0  0  0  0  0  0
   -0.1939   -1.1550   -1.3942 S   0  0  0  0  0  0  0  0  0  0  0  0
   -0.8152   -0.0486   -0.1683 C   0  0  0  0  0  0  0  0  0  0  0  0
    0.2989    0.4128    0.5554 C   0  0  0  0  0  0  0  0  0  0  0  0
    1.5378   -0.0883    0.1481 C   0  0  0  0  0  0  0  0  0  0  0  0
    0.0774    1.3397    1.6287 C   0  0  0  0  0  0  0  0  0  0  0  0
    1.0463    1.8807    2.4251 C   0  0  0  0  0  0  0  0  0  0  0  0
    0.3172    2.9334    3.5700 S   0  0  0  0  0  0  0  0  0  0  0  0
   -1.2618    2.6189    2.9500 C   0  0  0  0  0  0  0  0  0  0  0  0
   -1.2569    1.7315    1.8904 C   0  0  0  0  0  0  0  0  0  0  0  0
   -2.4050    1.3042    1.2022 C   0  0  0  0  0  0  0  0  0  0  0  0
   -3.7544    1.7777    1.5589 C   0  0  0  0  0  0  0  0  0  0  0  0
   -4.8377    1.3580    0.8895 C   0  0  0  0  0  0  0  0  0  0  0  0
   -4.7029    0.4258   -0.2034 C   0  0  0  0  0  0  0  0  0  0  0  0
   -5.7589   -0.0258   -0.9065 C   0  0  0  0  0  0  0  0  0  0  0  0
   -5.2260   -1.2075   -2.2357 Si  0  0  0  0  0  4  0  0  0  0  0  0
   -3.4620   -0.9542   -1.6598 C   0  0  0  0  0  0  0  0  0  0  0  0
   -3.3703   -0.0961   -0.6204 C   0  0  0  0  0  0  0  0  0  0  0  0
   -2.1584    0.3744    0.1293 C   0  0  0  0  0  0  0  0  0  0  0  0
    4.9483   -1.3143   -0.7900 C   0  0  0  0  0  0  0  0  0  0  0  0
    5.4055   -2.1446   -1.7112 N   0  0  0  0  0  0  0  0  0  0  0  0
    6.7786   -2.2570   -1.6338 C   0  0  0  0  0  0  0  0  0  0  0  0
    7.3791   -1.5095   -0.6484 C   0  0  0  0  0  0  0  0  0  0  0  0
    6.1901   -0.6340    0.2140 S   0  0  0  0  0  0  0  0  0  0  0  0
    3.1878   -0.3567    1.4929 H   0  0  0  0  0  0  0  0  0  0  0  0
    3.3656    1.0183    0.3422 H   0  0  0  0  0  0  0  0  0  0  0  0
    2.7268   -2.1830   -2.1712 H   0  0  0  0  0  0  0  0  0  0  0  0
    2.1164    1.7449    2.4284 H   0  0  0  0  0  0  0  0  0  0  0  0
   -2.0914    3.1226    3.4234 H   0  0  0  0  0  0  0  0  0  0  0  0
   -3.8844    2.4771    2.3745 H   0  0  0  0  0  0  0  0  0  0  0  0
   -5.8265    1.7133    1.1607 H   0  0  0  0  0  0  0  0  0  0  0  0
   -6.7966    0.2294   -0.7623 H   0  0  0  0  0  0  0  0  0  0  0  0
   -5.7078   -2.5895   -1.9973 H   0  0  0  0  0  0  0  0  0  0  0  0
   -5.4595   -0.6749   -3.5998 H   0  0  0  0  0  0  0  0  0  0  0  0
   -2.6943   -1.4910   -2.1822 H   0  0  0  0  0  0  0  0  0  0  0  0
    7.2963   -2.9062   -2.3294 H   0  0  0  0  0  0  0  0  0  0  0  0
    8.4285   -1.4388   -0.4023 H   0  0  0  0  0  0  0  0  0  0  0  0
  1  2  1  0
  2  3  2  0
  3  4  1  0
  4  5  1  0
  5  6  1  0
  6  7  2  0
  7  8  1  0
  7  9  1  0
  9 10  2  0
 10 11  1  0
 11 12  1  0
 12 13  2  0
 13 14  1  0
 14 15  1  0
 15 16  2  0
 16 17  1  0
 17 18  2  0
 18 19  1  0
 19 20  1  0
 20 21  2  0
 21 22  1  0
  2 23  1  0
 23 24  2  0
 24 25  1  0
 25 26  2  0
 26 27  1  0
  8  1  1  0
 13  9  1  0
 22 14  2  0
 27 23  1  0
  8  4  2  0
 21 17  1  0
 22  6  1  0
  1 28  1  0
  1 29  1  0
  3 30  1  0
 10 31  1  0
 12 32  1  0
 15 33  1  0
 16 34  1  0
 18 35  1  0
 19 36  1  0
 19 37  1  0
 20 38  1  0
 25 39  1  0
 26 40  1  0
M  END
