
     RDKit          3D

 41 45  0  0  0  0  0  0  0  0999 V2000
    1.5956   -0.8223   -1.6337 C   0  0  0  0  0  0  0  0  0  0  0  0
    1.8754   -0.5096   -3.0894 C   0  0  0  0  0  0  0  0  0  0  0  0
    1.3058    0.6706   -3.3849 C   0  0  0  0  0  0  0  0  0  0  0  0
    0.6385    1.2057   -2.2242 C   0  0  0  0  0  0  0  0  0  0  0  0
    0.7776    0.3689   -1.1815 C   0  0  0  0  0  0  0  0  0  0  0  0
    0.2730    0.4920    0.1617 C   0  0  0  0  0  0  0  0  0  0  0  0
   -0.8606    1.9264    0.7389 Si  0  0  0  0  0  4  0  0  0  0  0  0
   -0.8881    1.1290    2.4382 C   0  0  0  0  0  0  0  0  0  0  0  0
   -0.1542    0.0001    2.4587 C   0  0  0  0  0  0  0  0  0  0  0  0
    0.4901   -0.3483    1.1987 C   0  0  0  0  0  0  0  0  0  0  0  0
   -1.6251    1.6269    3.5350 C   0  0  0  0  0  0  0  0  0  0  0  0
   -1.3406    3.2327    4.1532 S   0  0  0  0  0  0  0  0  0  0  0  0
   -2.5388    3.0891    5.3858 C   0  0  0  0  0  0  0  0  0  0  0  0
   -3.1316    1.8584    5.3413 C   0  0  0  0  0  0  0  0  0  0  0  0
   -4.1671    1.2949    6.1521 C   0  0  0  0  0  0  0  0  0  0  0  0
   -4.5224    0.0329    5.8242 C   0  0  0  0  0  0  0  0  0  0  0  0
   -3.5021   -0.6116    4.3361 Si  0  0  0  0  0  4  0  0  0  0  0  0
   -2.6003    1.0491    4.3019 C   0  0  0  0  0  0  0  0  0  0  0  0
    2.6363   -1.3946   -3.9344 C   0  0  0  0  0  0  0  0  0  0  0  0
    2.9657   -1.0667   -5.7858 Si  0  0  0  0  0  4  0  0  0  0  0  0
    3.9289   -2.6744   -5.8352 C   0  0  0  0  0  0  0  0  0  0  0  0
    3.9399   -3.2696   -4.6291 C   0  0  0  0  0  0  0  0  0  0  0  0
    3.2230   -2.5612   -3.5788 C   0  0  0  0  0  0  0  0  0  0  0  0
    2.5283   -0.8968   -1.0618 H   0  0  0  0  0  0  0  0  0  0  0  0
    1.0225   -1.7499   -1.5362 H   0  0  0  0  0  0  0  0  0  0  0  0
    1.3116    1.1870   -4.3318 H   0  0  0  0  0  0  0  0  0  0  0  0
    0.1172    2.1493   -2.2484 H   0  0  0  0  0  0  0  0  0  0  0  0
   -0.1507    3.2324    0.6912 H   0  0  0  0  0  0  0  0  0  0  0  0
   -2.1786    1.8868    0.0502 H   0  0  0  0  0  0  0  0  0  0  0  0
   -0.0197   -0.6280    3.3323 H   0  0  0  0  0  0  0  0  0  0  0  0
    1.1027   -1.2401    1.1440 H   0  0  0  0  0  0  0  0  0  0  0  0
   -2.7274    3.9131    6.0598 H   0  0  0  0  0  0  0  0  0  0  0  0
   -4.6244    1.8468    6.9648 H   0  0  0  0  0  0  0  0  0  0  0  0
   -5.2715   -0.5847    6.2906 H   0  0  0  0  0  0  0  0  0  0  0  0
   -4.3820   -0.8542    3.1654 H   0  0  0  0  0  0  0  0  0  0  0  0
   -2.6447   -1.7550    4.7427 H   0  0  0  0  0  0  0  0  0  0  0  0
    1.7314   -1.1230   -6.6060 H   0  0  0  0  0  0  0  0  0  0  0  0
    3.8354    0.1166   -6.0074 H   0  0  0  0  0  0  0  0  0  0  0  0
    4.3976   -3.0294   -6.7392 H   0  0  0  0  0  0  0  0  0  0  0  0
    4.4417   -4.2073   -4.4245 H   0  0  0  0  0  0  0  0  0  0  0  0
    3.1919   -2.9823   -2.5810 H   0  0  0  0  0  0  0  0  0  0  0  0
  1  2  1  0
  2  3  2  0
  3  4  1  0
  4  5  2  0
  5  6  1  0
  6  7  1  0
  7  8  1  0
  8  9  2  0
  9 10  1  0
  8 11  1  0
 11 12  1  0
 12 13  1  0
 13 14  2  0
 14 15  1  0
 15 16  2  0
 16 17  1  0
 17 18  1  0
  2 19  1  0
 19 20  1  0
 20 21  1  0
 21 22  2  0
 22 23  1  0
  5  1  1  0
 10  6  2  0
 18 11  2  0
 23 19  2  0
 18 14  1  0
  1 24  1  0
  1 25  1  0
  3 26  1  0
  4 27  1  0
  7 28  1  0
  7 29  1  0
  9 30  1  0
 10 31  1  0
 13 32  1  0
 15 33  1  0
 16 34  1  0
 17 35  1  0
 17 36  1  0
 20 37  1  0
 20 38  1  0
 21 39  1  0
 22 40  1  0
 23 41  1  0
M  END
