
     RDKit          3D

 48 54  0  0  0  0  0  0  0  0999 V2000
   -2.0559    0.2365    0.0766 C   0  0  0  0  0  0  0  0  0  0  0  0
   -3.1511   -0.0802   -0.9295 C   0  0  0  0  0  0  0  0  0  0  0  0
   -2.5691   -0.3188   -2.1209 C   0  0  0  0  0  0  0  0  0  0  0  0
   -1.1365   -0.1938   -2.0194 C   0  0  0  0  0  0  0  0  0  0  0  0
   -0.8104    0.1140   -0.7558 C   0  0  0  0  0  0  0  0  0  0  0  0
    0.5313    0.3614   -0.2268 C   0  0  0  0  0  0  0  0  0  0  0  0
    0.8292    1.6785    0.1375 C   0  0  0  0  0  0  0  0  0  0  0  0
    2.0888    2.0092    0.6226 C   0  0  0  0  0  0  0  0  0  0  0  0
    3.0892    1.0341    0.7607 C   0  0  0  0  0  0  0  0  0  0  0  0
    4.4025    1.4635    1.2409 C   0  0  0  0  0  0  0  0  0  0  0  0
    5.5299    1.6146    0.4212 C   0  0  0  0  0  0  0  0  0  0  0  0
    6.7932    2.0103    0.7889 N   0  0  0  0  0  0  0  0  0  0  0  0
    7.0744    2.3199    2.0882 C   0  0  0  0  0  0  0  0  0  0  0  0
    6.0352    2.2225    3.0343 C   0  0  0  0  0  0  0  0  0  0  0  0
    6.1224    2.4862    4.3483 N   0  0  0  0  0  0  0  0  0  0  0  0
    4.6136    2.2063    4.9817 S   0  0  0  0  0  0  0  0  0  0  0  0
    3.7863    1.7461    3.6206 N   0  0  0  0  0  0  0  0  0  0  0  0
    4.6606    1.7837    2.5984 C   0  0  0  0  0  0  0  0  0  0  0  0
    2.8026   -0.3193    0.4140 C   0  0  0  0  0  0  0  0  0  0  0  0
    3.7555   -1.3592    0.5584 C   0  0  0  0  0  0  0  0  0  0  0  0
    3.4688   -2.6827    0.2237 C   0  0  0  0  0  0  0  0  0  0  0  0
    2.2144   -3.0102   -0.2597 C   0  0  0  0  0  0  0  0  0  0  0  0
    1.2513   -2.0128   -0.4073 C   0  0  0  0  0  0  0  0  0  0  0  0
    1.5122   -0.6578   -0.0856 C   0  0  0  0  0  0  0  0  0  0  0  0
   -4.5608   -0.1323   -0.7365 C   0  0  0  0  0  0  0  0  0  0  0  0
   -5.2500    0.3449    0.8121 S   0  0  0  0  0  0  0  0  0  0  0  0
   -6.8837    0.0433    0.3307 C   0  0  0  0  0  0  0  0  0  0  0  0
   -6.8620   -0.3982   -0.9402 C   0  0  0  0  0  0  0  0  0  0  0  0
   -7.9437   -0.7539   -1.6918 N   0  0  0  0  0  0  0  0  0  0  0  0
   -7.3330   -1.1244   -2.8860 C   0  0  0  0  0  0  0  0  0  0  0  0
   -5.9307   -0.9821   -2.8154 C   0  0  0  0  0  0  0  0  0  0  0  0
   -5.6134   -0.4938   -1.5156 C   0  0  0  0  0  0  0  0  0  0  0  0
   -2.0538   -0.4909    0.8955 H   0  0  0  0  0  0  0  0  0  0  0  0
   -2.1735    1.2491    0.4769 H   0  0  0  0  0  0  0  0  0  0  0  0
   -3.0573   -0.5640   -3.0507 H   0  0  0  0  0  0  0  0  0  0  0  0
   -0.4559   -0.3238   -2.8475 H   0  0  0  0  0  0  0  0  0  0  0  0
    0.0836    2.4640    0.0311 H   0  0  0  0  0  0  0  0  0  0  0  0
    2.2899    3.0451    0.8916 H   0  0  0  0  0  0  0  0  0  0  0  0
    5.4435    1.4023   -0.6459 H   0  0  0  0  0  0  0  0  0  0  0  0
    8.0834    2.6270    2.3289 H   0  0  0  0  0  0  0  0  0  0  0  0
    4.7488   -1.1541    0.9523 H   0  0  0  0  0  0  0  0  0  0  0  0
    4.2248   -3.4530    0.3510 H   0  0  0  0  0  0  0  0  0  0  0  0
    1.9759   -4.0390   -0.5157 H   0  0  0  0  0  0  0  0  0  0  0  0
    0.2720   -2.3143   -0.7740 H   0  0  0  0  0  0  0  0  0  0  0  0
   -7.7246    0.2025    0.9905 H   0  0  0  0  0  0  0  0  0  0  0  0
   -8.9202   -0.7429   -1.4243 H   0  0  0  0  0  0  0  0  0  0  0  0
   -7.9497   -1.4679   -3.7067 H   0  0  0  0  0  0  0  0  0  0  0  0
   -5.2483   -1.2141   -3.6211 H   0  0  0  0  0  0  0  0  0  0  0  0
  1  2  1  0
  2  3  2  0
  3  4  1  0
  4  5  2  0
  5  6  1  0
  6  7  2  0
  7  8  1  0
  8  9  2  0
  9 10  1  0
 10 11  2  0
 11 12  1  0
 12 13  2  0
 13 14  1  0
 14 15  2  0
 15 16  1  0
 16 17  1  0
 17 18  2  0
  9 19  1  0
 19 20  2  0
 20 21  1  0
 21 22  2  0
 22 23  1  0
 23 24  2  0
  2 25  1  0
 25 26  1  0
 26 27  1  0
 27 28  2  0
 28 29  1  0
 29 30  1  0
 30 31  2  0
 31 32  1  0
  5  1  1  0
 24  6  1  0
 32 25  2  0
 18 10  1  0
 24 19  1  0
 32 28  1  0
 18 14  1  0
  1 33  1  0
  1 34  1  0
  3 35  1  0
  4 36  1  0
  7 37  1  0
  8 38  1  0
 11 39  1  0
 13 40  1  0
 20 41  1  0
 21 42  1  0
 22 43  1  0
 23 44  1  0
 27 45  1  0
 29 46  1  0
 30 47  1  0
 31 48  1  0
M  END
