
     RDKit          3D

 44 49  0  0  0  0  0  0  0  0999 V2000
    3.2797    0.2504    0.4574 C   0  0  0  0  0  0  0  0  0  0  0  0
    4.5109    0.3831   -0.4133 C   0  0  0  0  0  0  0  0  0  0  0  0
    4.1153    0.6045   -1.6819 C   0  0  0  0  0  0  0  0  0  0  0  0
    2.6772    0.6390   -1.7592 C   0  0  0  0  0  0  0  0  0  0  0  0
    2.1621    0.4347   -0.5369 C   0  0  0  0  0  0  0  0  0  0  0  0
    0.7651    0.4032   -0.1633 C   0  0  0  0  0  0  0  0  0  0  0  0
    0.0443    1.5456   -0.2554 C   0  0  0  0  0  0  0  0  0  0  0  0
   -1.3628    1.6459    0.1231 C   0  0  0  0  0  0  0  0  0  0  0  0
   -2.0710    0.6041    0.6157 C   0  0  0  0  0  0  0  0  0  0  0  0
   -3.4485    0.8270    0.9191 C   0  0  0  0  0  0  0  0  0  0  0  0
   -3.9214    1.6361    2.3846 S   0  0  0  0  0  0  0  0  0  0  0  0
   -5.6086    1.5007    2.0356 C   0  0  0  0  0  0  0  0  0  0  0  0
   -5.8057    0.8554    0.8459 C   0  0  0  0  0  0  0  0  0  0  0  0
   -7.0113    0.5134    0.1561 C   0  0  0  0  0  0  0  0  0  0  0  0
   -6.8296   -0.1355   -1.0154 C   0  0  0  0  0  0  0  0  0  0  0  0
   -4.9627   -0.3981   -1.3875 Si  0  0  0  0  0  4  0  0  0  0  0  0
   -4.5808    0.4827    0.2351 C   0  0  0  0  0  0  0  0  0  0  0  0
   -1.3717   -0.6782    0.7407 C   0  0  0  0  0  0  0  0  0  0  0  0
   -1.9121   -1.8287    1.1938 C   0  0  0  0  0  0  0  0  0  0  0  0
   -0.6769   -3.2231    1.1488 Si  0  0  0  0  0  4  0  0  0  0  0  0
    0.5770   -2.0215    0.4613 C   0  0  0  0  0  0  0  0  0  0  0  0
    0.0566   -0.7827    0.3380 C   0  0  0  0  0  0  0  0  0  0  0  0
    5.8919    0.3057   -0.0764 C   0  0  0  0  0  0  0  0  0  0  0  0
    6.9132    0.4332   -0.9065 N   0  0  0  0  0  0  0  0  0  0  0  0
    8.1114    0.3011   -0.2352 C   0  0  0  0  0  0  0  0  0  0  0  0
    8.0110    0.0703    1.1163 C   0  0  0  0  0  0  0  0  0  0  0  0
    6.3631    0.0157    1.5693 S   0  0  0  0  0  0  0  0  0  0  0  0
    3.2542    1.0327    1.2238 H   0  0  0  0  0  0  0  0  0  0  0  0
    3.2439   -0.7345    0.9328 H   0  0  0  0  0  0  0  0  0  0  0  0
    4.7627    0.7409   -2.5374 H   0  0  0  0  0  0  0  0  0  0  0  0
    2.1246    0.8031   -2.6721 H   0  0  0  0  0  0  0  0  0  0  0  0
    0.5024    2.4665   -0.6092 H   0  0  0  0  0  0  0  0  0  0  0  0
   -1.8226    2.6221   -0.0134 H   0  0  0  0  0  0  0  0  0  0  0  0
   -6.3393    1.8995    2.7248 H   0  0  0  0  0  0  0  0  0  0  0  0
   -7.9896    0.7610    0.5514 H   0  0  0  0  0  0  0  0  0  0  0  0
   -7.5824   -0.4887   -1.7012 H   0  0  0  0  0  0  0  0  0  0  0  0
   -4.5702    0.3543   -2.6055 H   0  0  0  0  0  0  0  0  0  0  0  0
   -4.6417   -1.8478   -1.3905 H   0  0  0  0  0  0  0  0  0  0  0  0
   -2.9211   -1.9847    1.5421 H   0  0  0  0  0  0  0  0  0  0  0  0
   -0.3098   -3.7066    2.5015 H   0  0  0  0  0  0  0  0  0  0  0  0
   -1.0442   -4.2752    0.1708 H   0  0  0  0  0  0  0  0  0  0  0  0
    1.5743   -2.3455    0.2121 H   0  0  0  0  0  0  0  0  0  0  0  0
    9.0391    0.3832   -0.7881 H   0  0  0  0  0  0  0  0  0  0  0  0
    8.8039   -0.0646    1.8373 H   0  0  0  0  0  0  0  0  0  0  0  0
  1  2  1  0
  2  3  2  0
  3  4  1  0
  4  5  2  0
  5  6  1  0
  6  7  2  0
  7  8  1  0
  8  9  2  0
  9 10  1  0
 10 11  1  0
 11 12  1  0
 12 13  2  0
 13 14  1  0
 14 15  2  0
 15 16  1  0
 16 17  1  0
  9 18  1  0
 18 19  2  0
 19 20  1  0
 20 21  1  0
 21 22  2  0
  2 23  1  0
 23 24  2  0
 24 25  1  0
 25 26  2  0
 26 27  1  0
  5  1  1  0
 22  6  1  0
 27 23  1  0
 17 10  2  0
 22 18  1  0
 17 13  1  0
  1 28  1  0
  1 29  1  0
  3 30  1  0
  4 31  1  0
  7 32  1  0
  8 33  1  0
 12 34  1  0
 14 35  1  0
 15 36  1  0
 16 37  1  0
 16 38  1  0
 19 39  1  0
 20 40  1  0
 20 41  1  0
 21 42  1  0
 25 43  1  0
 26 44  1  0
M  END
