
     RDKit          3D

 45 50  0  0  0  0  0  0  0  0999 V2000
   -2.7859    0.3687    0.6413 C   0  0  0  0  0  0  0  0  0  0  0  0
   -4.1714    0.7652    0.1794 C   0  0  0  0  0  0  0  0  0  0  0  0
   -4.0734    1.3657   -1.0217 C   0  0  0  0  0  0  0  0  0  0  0  0
   -2.6950    1.4189   -1.4410 C   0  0  0  0  0  0  0  0  0  0  0  0
   -1.9308    0.8465   -0.4991 C   0  0  0  0  0  0  0  0  0  0  0  0
   -0.4788    0.6882   -0.5215 C   0  0  0  0  0  0  0  0  0  0  0  0
    0.2808    1.8003   -0.1412 C   0  0  0  0  0  0  0  0  0  0  0  0
    1.6681    1.7289   -0.1185 C   0  0  0  0  0  0  0  0  0  0  0  0
    2.3258    0.5448   -0.4802 C   0  0  0  0  0  0  0  0  0  0  0  0
    3.7922    0.5433   -0.4299 C   0  0  0  0  0  0  0  0  0  0  0  0
    4.6786    1.1338   -1.7866 S   0  0  0  0  0  0  0  0  0  0  0  0
    6.1924    0.8331   -1.0351 C   0  0  0  0  0  0  0  0  0  0  0  0
    6.0303    0.3019    0.2185 C   0  0  0  0  0  0  0  0  0  0  0  0
    7.0775   -0.0261    1.0254 N   0  0  0  0  0  0  0  0  0  0  0  0
    6.6297   -0.5303    2.2090 C   0  0  0  0  0  0  0  0  0  0  0  0
    5.2835   -0.6939    2.5600 C   0  0  0  0  0  0  0  0  0  0  0  0
    4.2221   -0.3734    1.7707 N   0  0  0  0  0  0  0  0  0  0  0  0
    4.6413    0.1346    0.5753 C   0  0  0  0  0  0  0  0  0  0  0  0
    1.5785   -0.6006   -0.8755 C   0  0  0  0  0  0  0  0  0  0  0  0
    2.1894   -1.8236   -1.2499 C   0  0  0  0  0  0  0  0  0  0  0  0
    1.4443   -2.9332   -1.6492 C   0  0  0  0  0  0  0  0  0  0  0  0
    0.0628   -2.8525   -1.6890 C   0  0  0  0  0  0  0  0  0  0  0  0
   -0.5692   -1.6646   -1.3227 C   0  0  0  0  0  0  0  0  0  0  0  0
    0.1580   -0.5233   -0.9042 C   0  0  0  0  0  0  0  0  0  0  0  0
   -5.4241    0.5817    0.8227 C   0  0  0  0  0  0  0  0  0  0  0  0
   -5.6956   -0.0103    2.0518 C   0  0  0  0  0  0  0  0  0  0  0  0
   -7.0936    0.0409    2.2649 C   0  0  0  0  0  0  0  0  0  0  0  0
   -7.6162    0.6606    1.1599 C   0  0  0  0  0  0  0  0  0  0  0  0
   -6.6305    0.9885    0.2912 O   0  0  0  0  0  0  0  0  0  0  0  0
   -2.7143   -0.7152    0.7773 H   0  0  0  0  0  0  0  0  0  0  0  0
   -2.5242    0.8772    1.5753 H   0  0  0  0  0  0  0  0  0  0  0  0
   -4.8898    1.7597   -1.6101 H   0  0  0  0  0  0  0  0  0  0  0  0
   -2.3587    1.8514   -2.3713 H   0  0  0  0  0  0  0  0  0  0  0  0
   -0.2070    2.7291    0.1477 H   0  0  0  0  0  0  0  0  0  0  0  0
    2.2383    2.6030    0.1889 H   0  0  0  0  0  0  0  0  0  0  0  0
    7.1181    1.0597   -1.5437 H   0  0  0  0  0  0  0  0  0  0  0  0
    7.4122   -0.8155    2.9069 H   0  0  0  0  0  0  0  0  0  0  0  0
    5.0199   -1.1063    3.5301 H   0  0  0  0  0  0  0  0  0  0  0  0
    3.2723   -1.9285   -1.2338 H   0  0  0  0  0  0  0  0  0  0  0  0
    1.9480   -3.8541   -1.9302 H   0  0  0  0  0  0  0  0  0  0  0  0
   -0.5276   -3.7082   -2.0049 H   0  0  0  0  0  0  0  0  0  0  0  0
   -1.6559   -1.6370   -1.3756 H   0  0  0  0  0  0  0  0  0  0  0  0
   -4.9569   -0.4322    2.7193 H   0  0  0  0  0  0  0  0  0  0  0  0
   -7.6478   -0.3271    3.1163 H   0  0  0  0  0  0  0  0  0  0  0  0
   -8.6171    0.9303    0.8536 H   0  0  0  0  0  0  0  0  0  0  0  0
  1  2  1  0
  2  3  2  0
  3  4  1  0
  4  5  2  0
  5  6  1  0
  6  7  2  0
  7  8  1  0
  8  9  2  0
  9 10  1  0
 10 11  1  0
 11 12  1  0
 12 13  2  0
 13 14  1  0
 14 15  2  0
 15 16  1  0
 16 17  2  0
 17 18  1  0
  9 19  1  0
 19 20  2  0
 20 21  1  0
 21 22  2  0
 22 23  1  0
 23 24  2  0
  2 25  1  0
 25 26  2  0
 26 27  1  0
 27 28  2  0
 28 29  1  0
  5  1  1  0
 24  6  1  0
 29 25  1  0
 18 10  2  0
 24 19  1  0
 18 13  1  0
  1 30  1  0
  1 31  1  0
  3 32  1  0
  4 33  1  0
  7 34  1  0
  8 35  1  0
 12 36  1  0
 15 37  1  0
 16 38  1  0
 20 39  1  0
 21 40  1  0
 22 41  1  0
 23 42  1  0
 26 43  1  0
 27 44  1  0
 28 45  1  0
M  END
