
     RDKit          3D

 46 51  0  0  0  0  0  0  0  0999 V2000
   -1.1807    0.4976   -0.1058 C   0  0  0  0  0  0  0  0  0  0  0  0
   -0.0813    0.8514    0.8735 C   0  0  0  0  0  0  0  0  0  0  0  0
   -0.6344    1.3735    1.9854 C   0  0  0  0  0  0  0  0  0  0  0  0
   -2.0672    1.4366    1.8387 C   0  0  0  0  0  0  0  0  0  0  0  0
   -2.4090    0.9412    0.6396 C   0  0  0  0  0  0  0  0  0  0  0  0
   -3.7555    0.8491    0.0799 C   0  0  0  0  0  0  0  0  0  0  0  0
   -4.3396    2.0425   -0.3707 C   0  0  0  0  0  0  0  0  0  0  0  0
   -5.6061    2.0399   -0.9451 C   0  0  0  0  0  0  0  0  0  0  0  0
   -6.3056    0.8430   -1.0728 C   0  0  0  0  0  0  0  0  0  0  0  0
   -5.7545   -0.3647   -0.6205 C   0  0  0  0  0  0  0  0  0  0  0  0
   -6.4792   -1.5610   -0.7508 C   0  0  0  0  0  0  0  0  0  0  0  0
   -5.9580   -2.7705   -0.2941 C   0  0  0  0  0  0  0  0  0  0  0  0
   -4.7048   -2.7995    0.3031 C   0  0  0  0  0  0  0  0  0  0  0  0
   -3.9701   -1.6191    0.4374 C   0  0  0  0  0  0  0  0  0  0  0  0
   -4.4662   -0.3774   -0.0266 C   0  0  0  0  0  0  0  0  0  0  0  0
    1.3402    0.6225    0.6036 C   0  0  0  0  0  0  0  0  0  0  0  0
    1.7693   -0.2723   -0.3766 C   0  0  0  0  0  0  0  0  0  0  0  0
    3.1343   -0.4547   -0.6238 C   0  0  0  0  0  0  0  0  0  0  0  0
    4.0702    0.2696    0.1094 C   0  0  0  0  0  0  0  0  0  0  0  0
    3.6764    1.1629    1.0508 N   0  0  0  0  0  0  0  0  0  0  0  0
    2.3446    1.3111    1.2758 C   0  0  0  0  0  0  0  0  0  0  0  0
    5.5152    0.1742   -0.0814 C   0  0  0  0  0  0  0  0  0  0  0  0
    6.3932    1.2530    0.1271 C   0  0  0  0  0  0  0  0  0  0  0  0
    7.7612    1.2942   -0.0304 N   0  0  0  0  0  0  0  0  0  0  0  0
    8.4429    0.1830   -0.4224 C   0  0  0  0  0  0  0  0  0  0  0  0
    7.7087   -0.9965   -0.6531 C   0  0  0  0  0  0  0  0  0  0  0  0
    8.2109   -2.1821   -1.0348 N   0  0  0  0  0  0  0  0  0  0  0  0
    6.9255   -3.2215   -1.1509 S   0  0  0  0  0  0  0  0  0  0  0  0
    5.6786   -2.2161   -0.7279 N   0  0  0  0  0  0  0  0  0  0  0  0
    6.2069   -1.0026   -0.4762 C   0  0  0  0  0  0  0  0  0  0  0  0
   -1.2061   -0.5771   -0.3093 H   0  0  0  0  0  0  0  0  0  0  0  0
   -1.0660    1.0510   -1.0437 H   0  0  0  0  0  0  0  0  0  0  0  0
   -0.1256    1.7075    2.8773 H   0  0  0  0  0  0  0  0  0  0  0  0
   -2.7371    1.8328    2.5872 H   0  0  0  0  0  0  0  0  0  0  0  0
   -3.8012    2.9836   -0.2847 H   0  0  0  0  0  0  0  0  0  0  0  0
   -6.0446    2.9692   -1.2980 H   0  0  0  0  0  0  0  0  0  0  0  0
   -7.2939    0.8615   -1.5276 H   0  0  0  0  0  0  0  0  0  0  0  0
   -7.4663   -1.5588   -1.2084 H   0  0  0  0  0  0  0  0  0  0  0  0
   -6.5361   -3.6856   -0.3987 H   0  0  0  0  0  0  0  0  0  0  0  0
   -4.2985   -3.7375    0.6713 H   0  0  0  0  0  0  0  0  0  0  0  0
   -2.9995   -1.6769    0.9256 H   0  0  0  0  0  0  0  0  0  0  0  0
    1.0597   -0.8486   -0.9643 H   0  0  0  0  0  0  0  0  0  0  0  0
    3.4391   -1.1491   -1.4011 H   0  0  0  0  0  0  0  0  0  0  0  0
    2.1120    2.0486    2.0398 H   0  0  0  0  0  0  0  0  0  0  0  0
    5.9818    2.2117    0.4517 H   0  0  0  0  0  0  0  0  0  0  0  0
    9.5165    0.2602   -0.5326 H   0  0  0  0  0  0  0  0  0  0  0  0
  1  2  1  0
  2  3  2  0
  3  4  1  0
  4  5  2  0
  5  6  1  0
  6  7  2  0
  7  8  1  0
  8  9  2  0
  9 10  1  0
 10 11  2  0
 11 12  1  0
 12 13  2  0
 13 14  1  0
 14 15  2  0
  2 16  1  0
 16 17  2  0
 17 18  1  0
 18 19  2  0
 19 20  1  0
 20 21  2  0
 19 22  1  0
 22 23  2  0
 23 24  1  0
 24 25  2  0
 25 26  1  0
 26 27  2  0
 27 28  1  0
 28 29  1  0
 29 30  2  0
  5  1  1  0
 15  6  1  0
 21 16  1  0
 30 22  1  0
 15 10  1  0
 30 26  1  0
  1 31  1  0
  1 32  1  0
  3 33  1  0
  4 34  1  0
  7 35  1  0
  8 36  1  0
  9 37  1  0
 11 38  1  0
 12 39  1  0
 13 40  1  0
 14 41  1  0
 17 42  1  0
 18 43  1  0
 21 44  1  0
 23 45  1  0
 25 46  1  0
M  END
