
     RDKit          3D

 31 34  0  0  0  0  0  0  0  0999 V2000
    0.0567    0.0024    0.0164 C   0  0  0  0  0  0  0  0  0  0  0  0
    1.1165   -0.1033   -1.0641 C   0  0  0  0  0  0  0  0  0  0  0  0
    0.4873   -0.2314   -2.2466 C   0  0  0  0  0  0  0  0  0  0  0  0
   -0.9424   -0.2217   -2.0604 C   0  0  0  0  0  0  0  0  0  0  0  0
   -1.2376   -0.0872   -0.7562 C   0  0  0  0  0  0  0  0  0  0  0  0
   -2.5643   -0.0299   -0.1218 C   0  0  0  0  0  0  0  0  0  0  0  0
   -2.6919    0.1148    1.2690 C   0  0  0  0  0  0  0  0  0  0  0  0
   -3.9491    0.1702    1.8808 C   0  0  0  0  0  0  0  0  0  0  0  0
   -5.1045    0.0819    1.1116 C   0  0  0  0  0  0  0  0  0  0  0  0
   -5.0025   -0.0617   -0.2681 C   0  0  0  0  0  0  0  0  0  0  0  0
   -3.7443   -0.1170   -0.8776 C   0  0  0  0  0  0  0  0  0  0  0  0
    2.5331   -0.0772   -0.9076 C   0  0  0  0  0  0  0  0  0  0  0  0
    3.6681   -0.2077   -2.2476 S   0  0  0  0  0  0  0  0  0  0  0  0
    5.0732   -0.0943   -1.2471 C   0  0  0  0  0  0  0  0  0  0  0  0
    4.6543    0.0340    0.0218 C   0  0  0  0  0  0  0  0  0  0  0  0
    5.4456    0.1533    1.1221 O   0  0  0  0  0  0  0  0  0  0  0  0
    4.4713    0.2473    2.0979 C   0  0  0  0  0  0  0  0  0  0  0  0
    3.1607    0.1873    1.6070 C   0  0  0  0  0  0  0  0  0  0  0  0
    3.2946    0.0440    0.2117 C   0  0  0  0  0  0  0  0  0  0  0  0
    0.1520   -0.8251    0.7281 H   0  0  0  0  0  0  0  0  0  0  0  0
    0.1398    0.9605    0.5414 H   0  0  0  0  0  0  0  0  0  0  0  0
    0.9351   -0.3307   -3.2245 H   0  0  0  0  0  0  0  0  0  0  0  0
   -1.6322   -0.3127   -2.8852 H   0  0  0  0  0  0  0  0  0  0  0  0
   -1.8160    0.1875    1.9080 H   0  0  0  0  0  0  0  0  0  0  0  0
   -4.0223    0.2826    2.9595 H   0  0  0  0  0  0  0  0  0  0  0  0
   -6.0814    0.1249    1.5855 H   0  0  0  0  0  0  0  0  0  0  0  0
   -5.9012   -0.1314   -0.8755 H   0  0  0  0  0  0  0  0  0  0  0  0
   -3.7099   -0.2298   -1.9577 H   0  0  0  0  0  0  0  0  0  0  0  0
    6.0851   -0.1259   -1.6229 H   0  0  0  0  0  0  0  0  0  0  0  0
    4.8653    0.3538    3.1003 H   0  0  0  0  0  0  0  0  0  0  0  0
    2.2609    0.2424    2.2016 H   0  0  0  0  0  0  0  0  0  0  0  0
  1  2  1  0
  2  3  2  0
  3  4  1  0
  4  5  2  0
  5  6  1  0
  6  7  2  0
  7  8  1  0
  8  9  2  0
  9 10  1  0
 10 11  2  0
  2 12  1  0
 12 13  1  0
 13 14  1  0
 14 15  2  0
 15 16  1  0
 16 17  1  0
 17 18  2  0
 18 19  1  0
  5  1  1  0
 11  6  1  0
 19 12  2  0
 19 15  1  0
  1 20  1  0
  1 21  1  0
  3 22  1  0
  4 23  1  0
  7 24  1  0
  8 25  1  0
  9 26  1  0
 10 27  1  0
 11 28  1  0
 14 29  1  0
 17 30  1  0
 18 31  1  0
M  END
