
     RDKit          3D

 45 50  0  0  0  0  0  0  0  0999 V2000
    2.9359    0.0680    0.2054 C   0  0  0  0  0  0  0  0  0  0  0  0
    1.5924    0.6621    0.5863 C   0  0  0  0  0  0  0  0  0  0  0  0
    1.8038    1.9187    1.0196 C   0  0  0  0  0  0  0  0  0  0  0  0
    3.2080    2.2413    0.9658 C   0  0  0  0  0  0  0  0  0  0  0  0
    3.9033    1.1910    0.4972 C   0  0  0  0  0  0  0  0  0  0  0  0
    5.3514    1.0824    0.2803 C   0  0  0  0  0  0  0  0  0  0  0  0
    5.9322   -0.0895   -0.2186 C   0  0  0  0  0  0  0  0  0  0  0  0
    7.3113   -0.1688   -0.4164 C   0  0  0  0  0  0  0  0  0  0  0  0
    8.0850    0.9350   -0.1081 C   0  0  0  0  0  0  0  0  0  0  0  0
    7.5779    2.0860    0.3742 N   0  0  0  0  0  0  0  0  0  0  0  0
    6.2328    2.1294    0.5547 C   0  0  0  0  0  0  0  0  0  0  0  0
    0.3099    0.0608    0.5230 C   0  0  0  0  0  0  0  0  0  0  0  0
   -1.2058    0.7843    0.9676 S   0  0  0  0  0  0  0  0  0  0  0  0
   -2.1525   -0.6300    0.5640 C   0  0  0  0  0  0  0  0  0  0  0  0
   -3.5683   -0.6477    0.7303 C   0  0  0  0  0  0  0  0  0  0  0  0
   -4.0639   -1.4022    1.7421 C   0  0  0  0  0  0  0  0  0  0  0  0
   -5.4928   -1.5098    2.0325 C   0  0  0  0  0  0  0  0  0  0  0  0
   -6.4211   -0.8635    1.3039 C   0  0  0  0  0  0  0  0  0  0  0  0
   -5.9858   -0.0407    0.1947 C   0  0  0  0  0  0  0  0  0  0  0  0
   -6.8011    0.6515   -0.6222 C   0  0  0  0  0  0  0  0  0  0  0  0
   -5.8129    1.5626   -1.9247 Si  0  0  0  0  0  4  0  0  0  0  0  0
   -4.2550    0.8518   -1.1726 C   0  0  0  0  0  0  0  0  0  0  0  0
   -4.5373    0.0734   -0.1073 C   0  0  0  0  0  0  0  0  0  0  0  0
   -1.2800   -1.5674    0.1235 C   0  0  0  0  0  0  0  0  0  0  0  0
   -1.2735   -2.8870   -0.3596 C   0  0  0  0  0  0  0  0  0  0  0  0
    0.0720   -3.1693   -0.6220 C   0  0  0  0  0  0  0  0  0  0  0  0
    0.9353   -2.1259   -0.3438 O   0  0  0  0  0  0  0  0  0  0  0  0
    0.0418   -1.1946    0.1006 C   0  0  0  0  0  0  0  0  0  0  0  0
    3.1557   -0.8122    0.8197 H   0  0  0  0  0  0  0  0  0  0  0  0
    2.9508   -0.2003   -0.8568 H   0  0  0  0  0  0  0  0  0  0  0  0
    1.0650    2.6258    1.3683 H   0  0  0  0  0  0  0  0  0  0  0  0
    3.5904    3.2036    1.2706 H   0  0  0  0  0  0  0  0  0  0  0  0
    5.3275   -0.9589   -0.4620 H   0  0  0  0  0  0  0  0  0  0  0  0
    7.7680   -1.0732   -0.8024 H   0  0  0  0  0  0  0  0  0  0  0  0
    9.1623    0.9222   -0.2447 H   0  0  0  0  0  0  0  0  0  0  0  0
    5.8827    3.0805    0.9449 H   0  0  0  0  0  0  0  0  0  0  0  0
   -3.4049   -1.9610    2.4026 H   0  0  0  0  0  0  0  0  0  0  0  0
   -5.7861   -2.1337    2.8714 H   0  0  0  0  0  0  0  0  0  0  0  0
   -7.4781   -0.9473    1.5290 H   0  0  0  0  0  0  0  0  0  0  0  0
   -7.8770    0.7079   -0.5847 H   0  0  0  0  0  0  0  0  0  0  0  0
   -6.0708    1.0440   -3.2898 H   0  0  0  0  0  0  0  0  0  0  0  0
   -5.8998    3.0347   -1.7709 H   0  0  0  0  0  0  0  0  0  0  0  0
   -3.2843    1.0766   -1.5846 H   0  0  0  0  0  0  0  0  0  0  0  0
   -2.1084   -3.5566   -0.5090 H   0  0  0  0  0  0  0  0  0  0  0  0
    0.5640   -4.0541   -1.0046 H   0  0  0  0  0  0  0  0  0  0  0  0
  1  2  1  0
  2  3  2  0
  3  4  1  0
  4  5  2  0
  5  6  1  0
  6  7  2  0
  7  8  1  0
  8  9  2  0
  9 10  1  0
 10 11  2  0
  2 12  1  0
 12 13  1  0
 13 14  1  0
 14 15  1  0
 15 16  2  0
 16 17  1  0
 17 18  2  0
 18 19  1  0
 19 20  2  0
 20 21  1  0
 21 22  1  0
 22 23  2  0
 14 24  2  0
 24 25  1  0
 25 26  2  0
 26 27  1  0
 27 28  1  0
  5  1  1  0
 11  6  1  0
 28 12  2  0
 23 15  1  0
 28 24  1  0
 23 19  1  0
  1 29  1  0
  1 30  1  0
  3 31  1  0
  4 32  1  0
  7 33  1  0
  8 34  1  0
  9 35  1  0
 11 36  1  0
 16 37  1  0
 17 38  1  0
 18 39  1  0
 20 40  1  0
 21 41  1  0
 21 42  1  0
 22 43  1  0
 25 44  1  0
 26 45  1  0
M  END
