
     RDKit          3D

 40 45  0  0  0  0  0  0  0  0999 V2000
   -2.0766   -0.2195    0.2877 C   0  0  0  0  0  0  0  0  0  0  0  0
   -1.1062    0.5096   -0.6195 C   0  0  0  0  0  0  0  0  0  0  0  0
   -1.7973    1.0069   -1.6606 C   0  0  0  0  0  0  0  0  0  0  0  0
   -3.1978    0.6931   -1.5269 C   0  0  0  0  0  0  0  0  0  0  0  0
   -3.4047   -0.0197   -0.4060 C   0  0  0  0  0  0  0  0  0  0  0  0
   -4.6718   -0.5476    0.1156 C   0  0  0  0  0  0  0  0  0  0  0  0
   -5.8944   -0.3345   -0.5319 C   0  0  0  0  0  0  0  0  0  0  0  0
   -7.0768   -0.8529   -0.0022 C   0  0  0  0  0  0  0  0  0  0  0  0
   -7.0092   -1.5785    1.1729 C   0  0  0  0  0  0  0  0  0  0  0  0
   -5.8603   -1.8127    1.8363 N   0  0  0  0  0  0  0  0  0  0  0  0
   -4.7290   -1.2944    1.2940 C   0  0  0  0  0  0  0  0  0  0  0  0
    0.2985    0.6406   -0.4927 C   0  0  0  0  0  0  0  0  0  0  0  0
    1.2962   -0.6694    0.0220 S   0  0  0  0  0  0  0  0  0  0  0  0
    2.7553    0.2471   -0.0562 C   0  0  0  0  0  0  0  0  0  0  0  0
    4.0496   -0.3380    0.2465 C   0  0  0  0  0  0  0  0  0  0  0  0
    5.1070    0.0309   -0.5487 N   0  0  0  0  0  0  0  0  0  0  0  0
    6.3628   -0.4715   -0.3387 C   0  0  0  0  0  0  0  0  0  0  0  0
    6.7574   -1.3629    0.6523 C   0  0  0  0  0  0  0  0  0  0  0  0
    5.7096   -1.7506    1.5082 C   0  0  0  0  0  0  0  0  0  0  0  0
    5.8327   -2.5895    2.5488 N   0  0  0  0  0  0  0  0  0  0  0  0
    4.3289   -2.7082    3.2392 S   0  0  0  0  0  0  0  0  0  0  0  0
    3.4575   -1.7006    2.2540 N   0  0  0  0  0  0  0  0  0  0  0  0
    4.3053   -1.2311    1.3193 C   0  0  0  0  0  0  0  0  0  0  0  0
    2.4175    1.4951   -0.4704 C   0  0  0  0  0  0  0  0  0  0  0  0
    3.1708    2.6749   -0.7130 C   0  0  0  0  0  0  0  0  0  0  0  0
    2.3748    3.7562   -1.1012 C   0  0  0  0  0  0  0  0  0  0  0  0
    0.6497    3.4538   -1.2003 S   0  0  0  0  0  0  0  0  0  0  0  0
    1.0650    1.7582   -0.7052 C   0  0  0  0  0  0  0  0  0  0  0  0
   -1.8241   -1.2833    0.3565 H   0  0  0  0  0  0  0  0  0  0  0  0
   -2.0763    0.2305    1.2866 H   0  0  0  0  0  0  0  0  0  0  0  0
   -1.4012    1.5509   -2.5058 H   0  0  0  0  0  0  0  0  0  0  0  0
   -3.9320    1.0078   -2.2524 H   0  0  0  0  0  0  0  0  0  0  0  0
   -5.9507    0.2359   -1.4542 H   0  0  0  0  0  0  0  0  0  0  0  0
   -8.0273   -0.6917   -0.4982 H   0  0  0  0  0  0  0  0  0  0  0  0
   -7.9018   -2.0018    1.6241 H   0  0  0  0  0  0  0  0  0  0  0  0
   -3.8365   -1.5162    1.8726 H   0  0  0  0  0  0  0  0  0  0  0  0
    7.1024   -0.1043   -1.0507 H   0  0  0  0  0  0  0  0  0  0  0  0
    7.7715   -1.7193    0.7622 H   0  0  0  0  0  0  0  0  0  0  0  0
    4.2471    2.7520   -0.6134 H   0  0  0  0  0  0  0  0  0  0  0  0
    2.7147    4.7549   -1.3393 H   0  0  0  0  0  0  0  0  0  0  0  0
  1  2  1  0
  2  3  2  0
  3  4  1  0
  4  5  2  0
  5  6  1  0
  6  7  2  0
  7  8  1  0
  8  9  2  0
  9 10  1  0
 10 11  2  0
  2 12  1  0
 12 13  1  0
 13 14  1  0
 14 15  1  0
 15 16  2  0
 16 17  1  0
 17 18  2  0
 18 19  1  0
 19 20  2  0
 20 21  1  0
 21 22  1  0
 22 23  2  0
 14 24  2  0
 24 25  1  0
 25 26  2  0
 26 27  1  0
 27 28  1  0
  5  1  1  0
 11  6  1  0
 28 12  2  0
 23 15  1  0
 28 24  1  0
 23 19  1  0
  1 29  1  0
  1 30  1  0
  3 31  1  0
  4 32  1  0
  7 33  1  0
  8 34  1  0
  9 35  1  0
 11 36  1  0
 17 37  1  0
 18 38  1  0
 25 39  1  0
 26 40  1  0
M  END
