
     RDKit          3D

 44 50  0  0  0  0  0  0  0  0999 V2000
    2.3632   -0.5843   -0.0519 C   0  0  0  0  0  0  0  0  0  0  0  0
    3.5083   -1.5817    0.0670 C   0  0  0  0  0  0  0  0  0  0  0  0
    3.0105   -2.7242    0.5815 C   0  0  0  0  0  0  0  0  0  0  0  0
    1.6000   -2.5871    0.8383 C   0  0  0  0  0  0  0  0  0  0  0  0
    1.1897   -1.3584    0.4871 C   0  0  0  0  0  0  0  0  0  0  0  0
   -0.1648   -0.8449    0.6331 C   0  0  0  0  0  0  0  0  0  0  0  0
   -1.0885   -1.6238    1.2877 N   0  0  0  0  0  0  0  0  0  0  0  0
   -2.3742   -1.1925    1.4864 C   0  0  0  0  0  0  0  0  0  0  0  0
   -2.9380    0.0145    1.0675 C   0  0  0  0  0  0  0  0  0  0  0  0
   -4.3151    0.3975    1.3134 C   0  0  0  0  0  0  0  0  0  0  0  0
   -4.8747    0.5532    2.9476 S   0  0  0  0  0  0  0  0  0  0  0  0
   -6.4791    0.9713    2.4623 C   0  0  0  0  0  0  0  0  0  0  0  0
   -6.5809    0.9926    1.0984 C   0  0  0  0  0  0  0  0  0  0  0  0
   -7.7035    1.2617    0.2534 C   0  0  0  0  0  0  0  0  0  0  0  0
   -7.4542    1.1638   -1.0722 C   0  0  0  0  0  0  0  0  0  0  0  0
   -5.6231    0.7071   -1.4044 Si  0  0  0  0  0  4  0  0  0  0  0  0
   -5.3502    0.6706    0.4647 C   0  0  0  0  0  0  0  0  0  0  0  0
   -2.0357    0.8511    0.3667 C   0  0  0  0  0  0  0  0  0  0  0  0
   -2.3029    2.0577   -0.1672 N   0  0  0  0  0  0  0  0  0  0  0  0
   -0.8981    2.6146   -0.8395 S   0  0  0  0  0  0  0  0  0  0  0  0
    0.1166    1.3466   -0.5211 N   0  0  0  0  0  0  0  0  0  0  0  0
   -0.5971    0.4207    0.1458 C   0  0  0  0  0  0  0  0  0  0  0  0
    4.8841   -1.3827   -0.2840 C   0  0  0  0  0  0  0  0  0  0  0  0
    6.0767   -2.6397   -0.1373 S   0  0  0  0  0  0  0  0  0  0  0  0
    7.3524   -1.6552   -0.7095 C   0  0  0  0  0  0  0  0  0  0  0  0
    6.9102   -0.3972   -1.0157 C   0  0  0  0  0  0  0  0  0  0  0  0
    7.7332    0.5797   -1.4943 N   0  0  0  0  0  0  0  0  0  0  0  0
    7.0397    1.7310   -1.7093 C   0  0  0  0  0  0  0  0  0  0  0  0
    5.6704    1.9000   -1.4758 C   0  0  0  0  0  0  0  0  0  0  0  0
    4.8297    0.9402   -1.0036 N   0  0  0  0  0  0  0  0  0  0  0  0
    5.4958   -0.2339   -0.7737 C   0  0  0  0  0  0  0  0  0  0  0  0
    2.2133   -0.3072   -1.1028 H   0  0  0  0  0  0  0  0  0  0  0  0
    2.5642    0.3032    0.5570 H   0  0  0  0  0  0  0  0  0  0  0  0
    3.5420   -3.6386    0.8054 H   0  0  0  0  0  0  0  0  0  0  0  0
    0.9878   -3.3678    1.2661 H   0  0  0  0  0  0  0  0  0  0  0  0
   -2.9832   -1.9121    2.0359 H   0  0  0  0  0  0  0  0  0  0  0  0
   -7.2383    1.1604    3.2063 H   0  0  0  0  0  0  0  0  0  0  0  0
   -8.6765    1.5191    0.6554 H   0  0  0  0  0  0  0  0  0  0  0  0
   -8.1413    1.3210   -1.8875 H   0  0  0  0  0  0  0  0  0  0  0  0
   -4.9400    1.8108   -2.1208 H   0  0  0  0  0  0  0  0  0  0  0  0
   -5.5194   -0.6324   -2.0413 H   0  0  0  0  0  0  0  0  0  0  0  0
    8.3572   -2.0414   -0.7946 H   0  0  0  0  0  0  0  0  0  0  0  0
    7.6339    2.5586   -2.0914 H   0  0  0  0  0  0  0  0  0  0  0  0
    5.2001    2.8578   -1.6721 H   0  0  0  0  0  0  0  0  0  0  0  0
  1  2  1  0
  2  3  2  0
  3  4  1  0
  4  5  2  0
  5  6  1  0
  6  7  2  0
  7  8  1  0
  8  9  2  0
  9 10  1  0
 10 11  1  0
 11 12  1  0
 12 13  2  0
 13 14  1  0
 14 15  2  0
 15 16  1  0
 16 17  1  0
  9 18  1  0
 18 19  2  0
 19 20  1  0
 20 21  1  0
 21 22  2  0
  2 23  1  0
 23 24  1  0
 24 25  1  0
 25 26  2  0
 26 27  1  0
 27 28  2  0
 28 29  1  0
 29 30  2  0
 30 31  1  0
  5  1  1  0
 22  6  1  0
 31 23  2  0
 17 10  2  0
 22 18  1  0
 31 26  1  0
 17 13  1  0
  1 32  1  0
  1 33  1  0
  3 34  1  0
  4 35  1  0
  8 36  1  0
 12 37  1  0
 14 38  1  0
 15 39  1  0
 16 40  1  0
 16 41  1  0
 25 42  1  0
 28 43  1  0
 29 44  1  0
M  END
