
     RDKit          3D

 36 40  0  0  0  0  0  0  0  0999 V2000
   -1.3292    0.5647    0.0236 C   0  0  0  0  0  0  0  0  0  0  0  0
    0.0311   -0.1127   -0.0589 C   0  0  0  0  0  0  0  0  0  0  0  0
   -0.1672   -1.4431   -0.1132 C   0  0  0  0  0  0  0  0  0  0  0  0
   -1.5774   -1.7390   -0.0740 C   0  0  0  0  0  0  0  0  0  0  0  0
   -2.2818   -0.5980    0.0053 C   0  0  0  0  0  0  0  0  0  0  0  0
   -3.7324   -0.4967    0.0645 C   0  0  0  0  0  0  0  0  0  0  0  0
   -4.4759   -1.6533    0.0388 N   0  0  0  0  0  0  0  0  0  0  0  0
   -5.8435   -1.6291    0.0912 C   0  0  0  0  0  0  0  0  0  0  0  0
   -6.6623   -0.5098    0.1738 C   0  0  0  0  0  0  0  0  0  0  0  0
   -5.9496    0.7027    0.2033 C   0  0  0  0  0  0  0  0  0  0  0  0
   -6.5054    1.9223    0.2806 N   0  0  0  0  0  0  0  0  0  0  0  0
   -5.2548    3.0112    0.2842 S   0  0  0  0  0  0  0  0  0  0  0  0
   -3.9545    1.9882    0.1880 N   0  0  0  0  0  0  0  0  0  0  0  0
   -4.4409    0.7329    0.1480 C   0  0  0  0  0  0  0  0  0  0  0  0
    1.3042    0.5137   -0.0776 C   0  0  0  0  0  0  0  0  0  0  0  0
    1.6740    1.8445   -0.0285 C   0  0  0  0  0  0  0  0  0  0  0  0
    3.0877    1.9080   -0.0792 C   0  0  0  0  0  0  0  0  0  0  0  0
    3.5698    0.6140   -0.1590 C   0  0  0  0  0  0  0  0  0  0  0  0
    2.4675   -0.2143   -0.1564 N   0  0  0  0  0  0  0  0  0  0  0  0
    4.9231    0.0914   -0.2353 C   0  0  0  0  0  0  0  0  0  0  0  0
    5.0425   -1.2370   -0.3030 N   0  0  0  0  0  0  0  0  0  0  0  0
    6.3048   -1.6510   -0.3707 C   0  0  0  0  0  0  0  0  0  0  0  0
    7.3879   -0.8758   -0.3751 N   0  0  0  0  0  0  0  0  0  0  0  0
    7.1230    0.4280   -0.3031 C   0  0  0  0  0  0  0  0  0  0  0  0
    5.9162    0.9791   -0.2310 N   0  0  0  0  0  0  0  0  0  0  0  0
   -1.4765    1.2210   -0.8410 H   0  0  0  0  0  0  0  0  0  0  0  0
   -1.4092    1.1376    0.9537 H   0  0  0  0  0  0  0  0  0  0  0  0
    0.5723   -2.2257   -0.1771 H   0  0  0  0  0  0  0  0  0  0  0  0
   -1.9843   -2.7396   -0.1052 H   0  0  0  0  0  0  0  0  0  0  0  0
   -6.2962   -2.6204    0.0623 H   0  0  0  0  0  0  0  0  0  0  0  0
   -7.7406   -0.5628    0.2118 H   0  0  0  0  0  0  0  0  0  0  0  0
    0.9964    2.6864    0.0373 H   0  0  0  0  0  0  0  0  0  0  0  0
    3.6977    2.8025   -0.0599 H   0  0  0  0  0  0  0  0  0  0  0  0
    2.5420   -1.2207   -0.2072 H   0  0  0  0  0  0  0  0  0  0  0  0
    6.4693   -2.7218   -0.4278 H   0  0  0  0  0  0  0  0  0  0  0  0
    7.9722    1.1028   -0.3034 H   0  0  0  0  0  0  0  0  0  0  0  0
  1  2  1  0
  2  3  2  0
  3  4  1  0
  4  5  2  0
  5  6  1  0
  6  7  2  0
  7  8  1  0
  8  9  2  0
  9 10  1  0
 10 11  2  0
 11 12  1  0
 12 13  1  0
 13 14  2  0
  2 15  1  0
 15 16  2  0
 16 17  1  0
 17 18  2  0
 18 19  1  0
 18 20  1  0
 20 21  2  0
 21 22  1  0
 22 23  2  0
 23 24  1  0
 24 25  2  0
  5  1  1  0
 14  6  1  0
 19 15  1  0
 25 20  1  0
 14 10  1  0
  1 26  1  0
  1 27  1  0
  3 28  1  0
  4 29  1  0
  8 30  1  0
  9 31  1  0
 16 32  1  0
 17 33  1  0
 19 34  1  0
 22 35  1  0
 24 36  1  0
M  END
