
     RDKit          3D

 43 49  0  0  0  0  0  0  0  0999 V2000
    1.4357    0.5957   -0.4495 C   0  0  0  0  0  0  0  0  0  0  0  0
    2.9080    0.3808   -0.1498 C   0  0  0  0  0  0  0  0  0  0  0  0
    2.9931   -0.5847    0.7821 C   0  0  0  0  0  0  0  0  0  0  0  0
    1.6805   -1.0548    1.1489 C   0  0  0  0  0  0  0  0  0  0  0  0
    0.7332   -0.3972    0.4578 C   0  0  0  0  0  0  0  0  0  0  0  0
   -0.6591   -0.6335    0.5944 C   0  0  0  0  0  0  0  0  0  0  0  0
   -1.8515    0.2232   -0.3364 S   0  0  0  0  0  0  0  0  0  0  0  0
   -3.2084   -0.6001    0.3832 C   0  0  0  0  0  0  0  0  0  0  0  0
   -4.5644   -0.3063    0.0121 C   0  0  0  0  0  0  0  0  0  0  0  0
   -5.9009   -0.5012    1.1213 S   0  0  0  0  0  0  0  0  0  0  0  0
   -7.0904    0.0419   -0.0161 C   0  0  0  0  0  0  0  0  0  0  0  0
   -6.4530    0.3427   -1.1637 C   0  0  0  0  0  0  0  0  0  0  0  0
   -7.0232    0.8032   -2.3144 N   0  0  0  0  0  0  0  0  0  0  0  0
   -5.9076    0.9249   -3.1386 C   0  0  0  0  0  0  0  0  0  0  0  0
   -4.7249    0.5417   -2.4706 C   0  0  0  0  0  0  0  0  0  0  0  0
   -5.0877    0.1564   -1.1495 C   0  0  0  0  0  0  0  0  0  0  0  0
   -2.7009   -1.4750    1.2854 C   0  0  0  0  0  0  0  0  0  0  0  0
   -3.1249   -2.4542    2.2055 C   0  0  0  0  0  0  0  0  0  0  0  0
   -1.9513   -2.9514    2.7797 C   0  0  0  0  0  0  0  0  0  0  0  0
   -0.7970   -2.3707    2.2967 O   0  0  0  0  0  0  0  0  0  0  0  0
   -1.3278   -1.4924    1.3966 C   0  0  0  0  0  0  0  0  0  0  0  0
    4.0515    1.0388   -0.7080 C   0  0  0  0  0  0  0  0  0  0  0  0
    3.7822    2.2914   -1.8925 S   0  0  0  0  0  0  0  0  0  0  0  0
    5.4467    2.6078   -2.1043 C   0  0  0  0  0  0  0  0  0  0  0  0
    6.2109    1.7982   -1.3104 C   0  0  0  0  0  0  0  0  0  0  0  0
    7.5717    1.8593   -1.3003 N   0  0  0  0  0  0  0  0  0  0  0  0
    8.0875    0.9524   -0.4287 C   0  0  0  0  0  0  0  0  0  0  0  0
    7.3340    0.0729    0.3548 C   0  0  0  0  0  0  0  0  0  0  0  0
    5.9764   -0.0055    0.3612 N   0  0  0  0  0  0  0  0  0  0  0  0
    5.4182    0.8940   -0.5053 C   0  0  0  0  0  0  0  0  0  0  0  0
    1.1340    1.6209   -0.2076 H   0  0  0  0  0  0  0  0  0  0  0  0
    1.2171    0.3808   -1.5015 H   0  0  0  0  0  0  0  0  0  0  0  0
    3.8885   -0.9904    1.2292 H   0  0  0  0  0  0  0  0  0  0  0  0
    1.5405   -1.8324    1.8850 H   0  0  0  0  0  0  0  0  0  0  0  0
   -8.1423    0.1018    0.2248 H   0  0  0  0  0  0  0  0  0  0  0  0
   -8.0011    0.9951   -2.4943 H   0  0  0  0  0  0  0  0  0  0  0  0
   -6.0407    1.2780   -4.1533 H   0  0  0  0  0  0  0  0  0  0  0  0
   -3.7358    0.5468   -2.9091 H   0  0  0  0  0  0  0  0  0  0  0  0
   -4.1286   -2.7782    2.4393 H   0  0  0  0  0  0  0  0  0  0  0  0
   -1.7788   -3.7100    3.5320 H   0  0  0  0  0  0  0  0  0  0  0  0
    5.7860    3.3657   -2.7952 H   0  0  0  0  0  0  0  0  0  0  0  0
    9.1721    0.9442   -0.3676 H   0  0  0  0  0  0  0  0  0  0  0  0
    7.8326   -0.6206    1.0263 H   0  0  0  0  0  0  0  0  0  0  0  0
  1  2  1  0
  2  3  2  0
  3  4  1  0
  4  5  2  0
  5  6  1  0
  6  7  1  0
  7  8  1  0
  8  9  1  0
  9 10  1  0
 10 11  1  0
 11 12  2  0
 12 13  1  0
 13 14  1  0
 14 15  2  0
 15 16  1  0
  8 17  2  0
 17 18  1  0
 18 19  2  0
 19 20  1  0
 20 21  1  0
  2 22  1  0
 22 23  1  0
 23 24  1  0
 24 25  2  0
 25 26  1  0
 26 27  2  0
 27 28  1  0
 28 29  2  0
 29 30  1  0
  5  1  1  0
 21  6  2  0
 30 22  2  0
 16  9  2  0
 21 17  1  0
 30 25  1  0
 16 12  1  0
  1 31  1  0
  1 32  1  0
  3 33  1  0
  4 34  1  0
 11 35  1  0
 13 36  1  0
 14 37  1  0
 15 38  1  0
 18 39  1  0
 19 40  1  0
 24 41  1  0
 27 42  1  0
 28 43  1  0
M  END
