
     RDKit          3D

 37 42  0  0  0  0  0  0  0  0999 V2000
    2.4186    0.3269   -0.2354 C   0  0  0  0  0  0  0  0  0  0  0  0
    3.8256   -0.2160   -0.0833 C   0  0  0  0  0  0  0  0  0  0  0  0
    3.7303   -1.5166    0.2447 C   0  0  0  0  0  0  0  0  0  0  0  0
    2.3464   -1.9130    0.3306 C   0  0  0  0  0  0  0  0  0  0  0  0
    1.5381   -0.8730    0.0584 C   0  0  0  0  0  0  0  0  0  0  0  0
    0.1211   -0.9457    0.0629 C   0  0  0  0  0  0  0  0  0  0  0  0
   -0.8906    0.4363   -0.2353 S   0  0  0  0  0  0  0  0  0  0  0  0
   -2.3840   -0.4447   -0.0630 C   0  0  0  0  0  0  0  0  0  0  0  0
   -3.6651    0.1863   -0.2167 C   0  0  0  0  0  0  0  0  0  0  0  0
   -5.0665   -0.6805   -0.8064 S   0  0  0  0  0  0  0  0  0  0  0  0
   -6.1115    0.6953   -0.7172 C   0  0  0  0  0  0  0  0  0  0  0  0
   -5.3825    1.7265   -0.2581 C   0  0  0  0  0  0  0  0  0  0  0  0
   -5.8323    2.9914   -0.0388 O   0  0  0  0  0  0  0  0  0  0  0  0
   -4.6674    3.5744    0.4222 C   0  0  0  0  0  0  0  0  0  0  0  0
   -3.5728    2.7022    0.4771 C   0  0  0  0  0  0  0  0  0  0  0  0
   -4.0612    1.4633    0.0138 C   0  0  0  0  0  0  0  0  0  0  0  0
   -2.0511   -1.7302    0.2078 C   0  0  0  0  0  0  0  0  0  0  0  0
   -2.6543   -2.9748    0.4761 C   0  0  0  0  0  0  0  0  0  0  0  0
   -1.5925   -3.8634    0.6701 C   0  0  0  0  0  0  0  0  0  0  0  0
   -0.3451   -3.2859    0.5524 O   0  0  0  0  0  0  0  0  0  0  0  0
   -0.7014   -1.9976    0.2766 C   0  0  0  0  0  0  0  0  0  0  0  0
    5.0551    0.4875   -0.2484 C   0  0  0  0  0  0  0  0  0  0  0  0
    5.2422    1.8214   -0.5899 C   0  0  0  0  0  0  0  0  0  0  0  0
    6.5458    2.2682   -0.6866 N   0  0  0  0  0  0  0  0  0  0  0  0
    7.3565    1.2718   -0.4188 C   0  0  0  0  0  0  0  0  0  0  0  0
    6.6179   -0.2239   -0.0433 S   0  0  0  0  0  0  0  0  0  0  0  0
    2.2356    1.1332    0.4834 H   0  0  0  0  0  0  0  0  0  0  0  0
    2.2531    0.6940   -1.2543 H   0  0  0  0  0  0  0  0  0  0  0  0
    4.5356   -2.2128    0.4289 H   0  0  0  0  0  0  0  0  0  0  0  0
    2.0587   -2.9227    0.5845 H   0  0  0  0  0  0  0  0  0  0  0  0
   -7.1560    0.6784   -0.9920 H   0  0  0  0  0  0  0  0  0  0  0  0
   -4.7723    4.6213    0.6761 H   0  0  0  0  0  0  0  0  0  0  0  0
   -2.5785    2.9587    0.8128 H   0  0  0  0  0  0  0  0  0  0  0  0
   -3.7040   -3.2250    0.5308 H   0  0  0  0  0  0  0  0  0  0  0  0
   -1.5665   -4.9212    0.8979 H   0  0  0  0  0  0  0  0  0  0  0  0
    4.4422    2.5264   -0.7831 H   0  0  0  0  0  0  0  0  0  0  0  0
    8.4327    1.3839   -0.4330 H   0  0  0  0  0  0  0  0  0  0  0  0
  1  2  1  0
  2  3  2  0
  3  4  1  0
  4  5  2  0
  5  6  1  0
  6  7  1  0
  7  8  1  0
  8  9  1  0
  9 10  1  0
 10 11  1  0
 11 12  2  0
 12 13  1  0
 13 14  1  0
 14 15  2  0
 15 16  1  0
  8 17  2  0
 17 18  1  0
 18 19  2  0
 19 20  1  0
 20 21  1  0
  2 22  1  0
 22 23  2  0
 23 24  1  0
 24 25  2  0
 25 26  1  0
  5  1  1  0
 21  6  2  0
 26 22  1  0
 16  9  2  0
 21 17  1  0
 16 12  1  0
  1 27  1  0
  1 28  1  0
  3 29  1  0
  4 30  1  0
 11 31  1  0
 14 32  1  0
 15 33  1  0
 18 34  1  0
 19 35  1  0
 23 36  1  0
 25 37  1  0
M  END
