
     RDKit          3D

 38 43  0  0  0  0  0  0  0  0999 V2000
    1.9742   -0.5599    1.0174 C   0  0  0  0  0  0  0  0  0  0  0  0
    2.4807    0.1035   -0.0894 C   0  0  0  0  0  0  0  0  0  0  0  0
    1.4410    0.5412   -0.8675 O   0  0  0  0  0  0  0  0  0  0  0  0
    0.2998    0.1557   -0.2535 C   0  0  0  0  0  0  0  0  0  0  0  0
    0.5539   -0.5303    0.9182 C   0  0  0  0  0  0  0  0  0  0  0  0
   -0.5646   -0.9954    1.6677 C   0  0  0  0  0  0  0  0  0  0  0  0
   -0.3375   -1.6979    2.8663 C   0  0  0  0  0  0  0  0  0  0  0  0
   -1.4112   -2.1677    3.6255 C   0  0  0  0  0  0  0  0  0  0  0  0
   -2.7223   -1.9472    3.2063 C   0  0  0  0  0  0  0  0  0  0  0  0
   -2.9803   -1.2537    2.0218 C   0  0  0  0  0  0  0  0  0  0  0  0
   -1.9223   -0.7661    1.2319 C   0  0  0  0  0  0  0  0  0  0  0  0
   -2.2175   -0.0611    0.0266 C   0  0  0  0  0  0  0  0  0  0  0  0
   -3.3680    0.3479   -0.7065 C   0  0  0  0  0  0  0  0  0  0  0  0
   -4.6945    0.1734   -0.4566 N   0  0  0  0  0  0  0  0  0  0  0  0
   -5.5137    0.7085   -1.3920 C   0  0  0  0  0  0  0  0  0  0  0  0
   -5.1093    1.3915   -2.5358 C   0  0  0  0  0  0  0  0  0  0  0  0
   -3.7498    1.5670   -2.7861 C   0  0  0  0  0  0  0  0  0  0  0  0
   -2.9017    1.0215   -1.8320 C   0  0  0  0  0  0  0  0  0  0  0  0
   -1.5432    1.0555   -1.8426 O   0  0  0  0  0  0  0  0  0  0  0  0
   -1.1464    0.4025   -0.7220 C   0  0  0  0  0  0  0  0  0  0  0  0
    3.8283    0.4111   -0.5641 C   0  0  0  0  0  0  0  0  0  0  0  0
    4.9616    0.0169    0.1431 C   0  0  0  0  0  0  0  0  0  0  0  0
    6.2192    0.3413   -0.3632 C   0  0  0  0  0  0  0  0  0  0  0  0
    6.3115    1.0470   -1.5559 C   0  0  0  0  0  0  0  0  0  0  0  0
    5.1370    1.4007   -2.1962 C   0  0  0  0  0  0  0  0  0  0  0  0
    3.9070    1.0997   -1.7285 N   0  0  0  0  0  0  0  0  0  0  0  0
    2.5584   -1.0125    1.8048 H   0  0  0  0  0  0  0  0  0  0  0  0
    0.6716   -1.8875    3.2227 H   0  0  0  0  0  0  0  0  0  0  0  0
   -1.2244   -2.7092    4.5498 H   0  0  0  0  0  0  0  0  0  0  0  0
   -3.5522   -2.3168    3.8041 H   0  0  0  0  0  0  0  0  0  0  0  0
   -4.0160   -1.0996    1.7247 H   0  0  0  0  0  0  0  0  0  0  0  0
   -6.5742    0.5684   -1.1913 H   0  0  0  0  0  0  0  0  0  0  0  0
   -5.8494    1.7838   -3.2263 H   0  0  0  0  0  0  0  0  0  0  0  0
   -3.3729    2.0881   -3.6563 H   0  0  0  0  0  0  0  0  0  0  0  0
    4.8837   -0.5336    1.0736 H   0  0  0  0  0  0  0  0  0  0  0  0
    7.1182    0.0452    0.1699 H   0  0  0  0  0  0  0  0  0  0  0  0
    7.2737    1.3152   -1.9773 H   0  0  0  0  0  0  0  0  0  0  0  0
    5.1514    1.9529   -3.1316 H   0  0  0  0  0  0  0  0  0  0  0  0
  1  2  2  0
  2  3  1  0
  3  4  1  0
  4  5  2  0
  5  6  1  0
  6  7  2  0
  7  8  1  0
  8  9  2  0
  9 10  1  0
 10 11  2  0
 11 12  1  0
 12 13  1  0
 13 14  2  0
 14 15  1  0
 15 16  2  0
 16 17  1  0
 17 18  2  0
 18 19  1  0
 19 20  1  0
  2 21  1  0
 21 22  2  0
 22 23  1  0
 23 24  2  0
 24 25  1  0
 25 26  2  0
  5  1  1  0
 11  6  1  0
 20 12  2  0
 26 21  1  0
 20  4  1  0
 18 13  1  0
  1 27  1  0
  7 28  1  0
  8 29  1  0
  9 30  1  0
 10 31  1  0
 15 32  1  0
 16 33  1  0
 17 34  1  0
 22 35  1  0
 23 36  1  0
 24 37  1  0
 25 38  1  0
M  END
