
     RDKit          3D

 32 36  0  0  0  0  0  0  0  0999 V2000
    1.5657   -0.0439    2.0590 C   0  0  0  0  0  0  0  0  0  0  0  0
    2.2088    0.1060    0.8466 C   0  0  0  0  0  0  0  0  0  0  0  0
    1.3126    0.1293   -0.1915 O   0  0  0  0  0  0  0  0  0  0  0  0
    0.0825   -0.0085    0.3781 C   0  0  0  0  0  0  0  0  0  0  0  0
    0.1929   -0.1146    1.7178 C   0  0  0  0  0  0  0  0  0  0  0  0
   -1.3577   -0.2896    2.4505 S   0  0  0  0  0  0  0  0  0  0  0  0
   -2.1440   -0.2134    0.8845 C   0  0  0  0  0  0  0  0  0  0  0  0
   -1.2225   -0.0573   -0.1620 C   0  0  0  0  0  0  0  0  0  0  0  0
   -1.6807    0.0228   -1.4939 C   0  0  0  0  0  0  0  0  0  0  0  0
   -3.0484   -0.0530   -1.7706 C   0  0  0  0  0  0  0  0  0  0  0  0
   -3.9806   -0.2083   -0.7423 C   0  0  0  0  0  0  0  0  0  0  0  0
   -5.3522   -0.2852   -1.0088 C   0  0  0  0  0  0  0  0  0  0  0  0
   -6.2336   -0.4394    0.0505 C   0  0  0  0  0  0  0  0  0  0  0  0
   -5.8542   -0.5218    1.3421 N   0  0  0  0  0  0  0  0  0  0  0  0
   -4.5250   -0.4463    1.5895 C   0  0  0  0  0  0  0  0  0  0  0  0
   -3.5450   -0.2908    0.5985 C   0  0  0  0  0  0  0  0  0  0  0  0
    3.6194    0.2403    0.4726 C   0  0  0  0  0  0  0  0  0  0  0  0
    4.6351    0.2329    1.4258 C   0  0  0  0  0  0  0  0  0  0  0  0
    5.9569    0.3649    1.0036 C   0  0  0  0  0  0  0  0  0  0  0  0
    6.2286    0.5000   -0.3517 C   0  0  0  0  0  0  0  0  0  0  0  0
    5.1622    0.4976   -1.2334 C   0  0  0  0  0  0  0  0  0  0  0  0
    3.8730    0.3715   -0.8526 N   0  0  0  0  0  0  0  0  0  0  0  0
    2.0072   -0.0956    3.0425 H   0  0  0  0  0  0  0  0  0  0  0  0
   -0.9652    0.1438   -2.3048 H   0  0  0  0  0  0  0  0  0  0  0  0
   -3.3732    0.0117   -2.8075 H   0  0  0  0  0  0  0  0  0  0  0  0
   -5.7373   -0.2269   -2.0215 H   0  0  0  0  0  0  0  0  0  0  0  0
   -7.3047   -0.5026   -0.1207 H   0  0  0  0  0  0  0  0  0  0  0  0
   -4.2695   -0.5174    2.6428 H   0  0  0  0  0  0  0  0  0  0  0  0
    4.4182    0.1272    2.4825 H   0  0  0  0  0  0  0  0  0  0  0  0
    6.7667    0.3620    1.7278 H   0  0  0  0  0  0  0  0  0  0  0  0
    7.2454    0.6046   -0.7133 H   0  0  0  0  0  0  0  0  0  0  0  0
    5.3187    0.6001   -2.3035 H   0  0  0  0  0  0  0  0  0  0  0  0
  1  2  2  0
  2  3  1  0
  3  4  1  0
  4  5  2  0
  5  6  1  0
  6  7  1  0
  7  8  2  0
  8  9  1  0
  9 10  2  0
 10 11  1  0
 11 12  2  0
 12 13  1  0
 13 14  2  0
 14 15  1  0
 15 16  2  0
  2 17  1  0
 17 18  2  0
 18 19  1  0
 19 20  2  0
 20 21  1  0
 21 22  2  0
  5  1  1  0
 16  7  1  0
 22 17  1  0
  8  4  1  0
 16 11  1  0
  1 23  1  0
  9 24  1  0
 10 25  1  0
 12 26  1  0
 13 27  1  0
 15 28  1  0
 18 29  1  0
 19 30  1  0
 20 31  1  0
 21 32  1  0
M  END
