
     RDKit          3D

 31 35  0  0  0  0  0  0  0  0999 V2000
   -1.6564   -0.8223   -0.2307 C   0  0  0  0  0  0  0  0  0  0  0  0
   -0.7855    0.2423   -0.0322 C   0  0  0  0  0  0  0  0  0  0  0  0
   -1.4983    1.4214    0.0651 O   0  0  0  0  0  0  0  0  0  0  0  0
   -2.8231    1.1196   -0.0700 C   0  0  0  0  0  0  0  0  0  0  0  0
   -3.8942    2.0193   -0.0344 C   0  0  0  0  0  0  0  0  0  0  0  0
   -5.1992    1.5113   -0.1942 C   0  0  0  0  0  0  0  0  0  0  0  0
   -5.3370    0.1116   -0.3816 C   0  0  0  0  0  0  0  0  0  0  0  0
   -6.4917   -0.5610   -0.5512 N   0  0  0  0  0  0  0  0  0  0  0  0
   -6.0847   -2.1807   -0.7266 S   0  0  0  0  0  0  0  0  0  0  0  0
   -4.4109   -2.1034   -0.5944 N   0  0  0  0  0  0  0  0  0  0  0  0
   -4.2086   -0.8081   -0.4156 C   0  0  0  0  0  0  0  0  0  0  0  0
   -2.9198   -0.2362   -0.2489 C   0  0  0  0  0  0  0  0  0  0  0  0
    0.6677    0.3536    0.0882 C   0  0  0  0  0  0  0  0  0  0  0  0
    1.4950   -0.7636    0.0071 C   0  0  0  0  0  0  0  0  0  0  0  0
    2.8827   -0.6024    0.1290 C   0  0  0  0  0  0  0  0  0  0  0  0
    3.7676   -1.6914    0.0557 C   0  0  0  0  0  0  0  0  0  0  0  0
    5.1454   -1.4994    0.1808 C   0  0  0  0  0  0  0  0  0  0  0  0
    5.6571   -0.2196    0.3804 C   0  0  0  0  0  0  0  0  0  0  0  0
    4.7922    0.8724    0.4556 C   0  0  0  0  0  0  0  0  0  0  0  0
    3.4035    0.6891    0.3308 C   0  0  0  0  0  0  0  0  0  0  0  0
    2.4908    1.7417    0.3975 C   0  0  0  0  0  0  0  0  0  0  0  0
    1.1503    1.6032    0.2819 N   0  0  0  0  0  0  0  0  0  0  0  0
   -1.3994   -1.8653   -0.3440 H   0  0  0  0  0  0  0  0  0  0  0  0
   -3.7177    3.0801    0.1129 H   0  0  0  0  0  0  0  0  0  0  0  0
   -6.0674    2.1605   -0.1754 H   0  0  0  0  0  0  0  0  0  0  0  0
    1.0743   -1.7512   -0.1489 H   0  0  0  0  0  0  0  0  0  0  0  0
    3.3903   -2.6999   -0.0998 H   0  0  0  0  0  0  0  0  0  0  0  0
    5.8192   -2.3507    0.1221 H   0  0  0  0  0  0  0  0  0  0  0  0
    6.7298   -0.0716    0.4776 H   0  0  0  0  0  0  0  0  0  0  0  0
    5.2056    1.8664    0.6118 H   0  0  0  0  0  0  0  0  0  0  0  0
    2.8223    2.7654    0.5515 H   0  0  0  0  0  0  0  0  0  0  0  0
  1  2  2  0
  2  3  1  0
  3  4  1  0
  4  5  1  0
  5  6  2  0
  6  7  1  0
  7  8  2  0
  8  9  1  0
  9 10  1  0
 10 11  2  0
 11 12  1  0
  2 13  1  0
 13 14  2  0
 14 15  1  0
 15 16  2  0
 16 17  1  0
 17 18  2  0
 18 19  1  0
 19 20  2  0
 20 21  1  0
 21 22  2  0
 12  1  1  0
 22 13  1  0
 12  4  2  0
 20 15  1  0
 11  7  1  0
  1 23  1  0
  5 24  1  0
  6 25  1  0
 14 26  1  0
 16 27  1  0
 17 28  1  0
 18 29  1  0
 19 30  1  0
 21 31  1  0
M  END
