
     RDKit          3D

 35 41  0  0  0  0  0  0  0  0999 V2000
    1.4754    1.1032    0.8932 C   0  0  0  0  0  0  0  0  0  0  0  0
    2.3529    0.2188    0.2701 C   0  0  0  0  0  0  0  0  0  0  0  0
    1.4932   -0.9950   -0.6224 S   0  0  0  0  0  0  0  0  0  0  0  0
   -0.0269   -0.3317   -0.1707 C   0  0  0  0  0  0  0  0  0  0  0  0
    0.1211    0.7696    0.6277 C   0  0  0  0  0  0  0  0  0  0  0  0
   -1.1293    1.2655    0.9633 N   0  0  0  0  0  0  0  0  0  0  0  0
   -2.0954    0.4779    0.3768 C   0  0  0  0  0  0  0  0  0  0  0  0
   -1.4083   -0.4899   -0.3100 C   0  0  0  0  0  0  0  0  0  0  0  0
   -2.0568   -1.5044   -1.0548 C   0  0  0  0  0  0  0  0  0  0  0  0
   -1.4474   -2.4594   -1.7338 N   0  0  0  0  0  0  0  0  0  0  0  0
   -2.7313   -3.3209   -2.3795 S   0  0  0  0  0  0  0  0  0  0  0  0
   -4.0314   -2.4503   -1.7741 N   0  0  0  0  0  0  0  0  0  0  0  0
   -3.5165   -1.4423   -1.0364 C   0  0  0  0  0  0  0  0  0  0  0  0
   -4.2501   -0.4322   -0.3198 C   0  0  0  0  0  0  0  0  0  0  0  0
   -5.6502   -0.3252   -0.2678 C   0  0  0  0  0  0  0  0  0  0  0  0
   -6.2224    0.7094    0.4693 C   0  0  0  0  0  0  0  0  0  0  0  0
   -5.3862    1.6032    1.1303 C   0  0  0  0  0  0  0  0  0  0  0  0
   -4.0338    1.5441    1.1121 N   0  0  0  0  0  0  0  0  0  0  0  0
   -3.4967    0.5341    0.3920 C   0  0  0  0  0  0  0  0  0  0  0  0
    3.8323    0.2492    0.3189 C   0  0  0  0  0  0  0  0  0  0  0  0
    4.5429    1.2292    1.0402 C   0  0  0  0  0  0  0  0  0  0  0  0
    5.9019    1.3916    1.1822 N   0  0  0  0  0  0  0  0  0  0  0  0
    6.7624    0.5318    0.5761 C   0  0  0  0  0  0  0  0  0  0  0  0
    6.2203   -0.5154   -0.1907 C   0  0  0  0  0  0  0  0  0  0  0  0
    6.9249   -1.4479   -0.8520 N   0  0  0  0  0  0  0  0  0  0  0  0
    5.8170   -2.4355   -1.5860 S   0  0  0  0  0  0  0  0  0  0  0  0
    4.4079   -1.7256   -1.0983 N   0  0  0  0  0  0  0  0  0  0  0  0
    4.7154   -0.6664   -0.3270 C   0  0  0  0  0  0  0  0  0  0  0  0
    1.7690    1.9449    1.5066 H   0  0  0  0  0  0  0  0  0  0  0  0
   -1.2944    2.0764    1.5463 H   0  0  0  0  0  0  0  0  0  0  0  0
   -6.2789   -1.0386   -0.7947 H   0  0  0  0  0  0  0  0  0  0  0  0
   -7.3003    0.8184    0.5286 H   0  0  0  0  0  0  0  0  0  0  0  0
   -5.8025    2.4208    1.7135 H   0  0  0  0  0  0  0  0  0  0  0  0
    3.9989    1.9991    1.5869 H   0  0  0  0  0  0  0  0  0  0  0  0
    7.8233    0.6934    0.7123 H   0  0  0  0  0  0  0  0  0  0  0  0
  1  2  2  0
  2  3  1  0
  3  4  1  0
  4  5  2  0
  5  6  1  0
  6  7  1  0
  7  8  2  0
  8  9  1  0
  9 10  2  0
 10 11  1  0
 11 12  1  0
 12 13  2  0
 13 14  1  0
 14 15  2  0
 15 16  1  0
 16 17  2  0
 17 18  1  0
 18 19  2  0
  2 20  1  0
 20 21  2  0
 21 22  1  0
 22 23  2  0
 23 24  1  0
 24 25  2  0
 25 26  1  0
 26 27  1  0
 27 28  2  0
  5  1  1  0
 19  7  1  0
 28 20  1  0
  8  4  1  0
 13  9  1  0
 19 14  1  0
 28 24  1  0
  1 29  1  0
  6 30  1  0
 15 31  1  0
 16 32  1  0
 17 33  1  0
 21 34  1  0
 23 35  1  0
M  END
