
     RDKit          3D

 47 53  0  0  0  0  0  0  0  0999 V2000
    1.2773   -3.2372   -2.1824 Si  0  0  0  0  0  4  0  0  0  0  0  0
    2.4102   -2.0428   -1.3129 C   0  0  0  0  0  0  0  0  0  0  0  0
    1.7144   -1.0535   -0.7142 C   0  0  0  0  0  0  0  0  0  0  0  0
    2.2832    0.1245   -0.0731 C   0  0  0  0  0  0  0  0  0  0  0  0
    1.4161    1.0755    0.3370 C   0  0  0  0  0  0  0  0  0  0  0  0
   -0.0603    0.9860    0.2337 C   0  0  0  0  0  0  0  0  0  0  0  0
   -0.6467   -0.1951   -0.1459 C   0  0  0  0  0  0  0  0  0  0  0  0
   -2.1194   -0.3513    0.0521 C   0  0  0  0  0  0  0  0  0  0  0  0
   -2.8008   -1.5614    0.2837 C   0  0  0  0  0  0  0  0  0  0  0  0
   -2.2886   -2.8045    0.5806 C   0  0  0  0  0  0  0  0  0  0  0  0
   -3.3444   -3.6743    0.7524 N   0  0  0  0  0  0  0  0  0  0  0  0
   -4.5369   -2.9972    0.6460 C   0  0  0  0  0  0  0  0  0  0  0  0
   -4.2227   -1.6856    0.4001 C   0  0  0  0  0  0  0  0  0  0  0  0
   -5.1435   -0.6547    0.3330 C   0  0  0  0  0  0  0  0  0  0  0  0
   -4.4761    0.5859    0.2466 C   0  0  0  0  0  0  0  0  0  0  0  0
   -3.0382    0.7454    0.1579 C   0  0  0  0  0  0  0  0  0  0  0  0
   -2.4054    2.0719    0.3417 C   0  0  0  0  0  0  0  0  0  0  0  0
   -3.0550    3.2481    0.4778 C   0  0  0  0  0  0  0  0  0  0  0  0
   -1.8763    4.6411    0.8515 Si  0  0  0  0  0  4  0  0  0  0  0  0
   -0.4880    3.4031    0.7653 C   0  0  0  0  0  0  0  0  0  0  0  0
   -0.9306    2.1550    0.4915 C   0  0  0  0  0  0  0  0  0  0  0  0
    0.2365   -1.1873   -0.8025 C   0  0  0  0  0  0  0  0  0  0  0  0
   -0.1555   -2.2024   -1.6034 C   0  0  0  0  0  0  0  0  0  0  0  0
    3.7232    0.4011    0.1056 C   0  0  0  0  0  0  0  0  0  0  0  0
    4.5647    0.5432   -0.9956 C   0  0  0  0  0  0  0  0  0  0  0  0
    5.9108    0.8279   -0.7809 C   0  0  0  0  0  0  0  0  0  0  0  0
    6.3759    0.9698    0.5206 C   0  0  0  0  0  0  0  0  0  0  0  0
    5.4700    0.8264    1.5581 C   0  0  0  0  0  0  0  0  0  0  0  0
    4.1593    0.5537    1.3808 N   0  0  0  0  0  0  0  0  0  0  0  0
    1.2898   -4.5870   -1.5673 H   0  0  0  0  0  0  0  0  0  0  0  0
    1.4518   -3.2073   -3.6548 H   0  0  0  0  0  0  0  0  0  0  0  0
    3.4805   -2.1515   -1.3779 H   0  0  0  0  0  0  0  0  0  0  0  0
    1.8136    1.9670    0.8137 H   0  0  0  0  0  0  0  0  0  0  0  0
   -1.2763   -3.1623    0.7060 H   0  0  0  0  0  0  0  0  0  0  0  0
   -3.2520   -4.6567    0.9757 H   0  0  0  0  0  0  0  0  0  0  0  0
   -5.4791   -3.5061    0.7964 H   0  0  0  0  0  0  0  0  0  0  0  0
   -6.2147   -0.7514    0.4315 H   0  0  0  0  0  0  0  0  0  0  0  0
   -5.1042    1.4735    0.2963 H   0  0  0  0  0  0  0  0  0  0  0  0
   -4.1138    3.4384    0.4372 H   0  0  0  0  0  0  0  0  0  0  0  0
   -2.0666    5.1968    2.2130 H   0  0  0  0  0  0  0  0  0  0  0  0
   -1.8167    5.6426   -0.2405 H   0  0  0  0  0  0  0  0  0  0  0  0
    0.5288    3.7390    0.8799 H   0  0  0  0  0  0  0  0  0  0  0  0
   -1.1620   -2.4533   -1.8970 H   0  0  0  0  0  0  0  0  0  0  0  0
    4.1794    0.4423   -2.0050 H   0  0  0  0  0  0  0  0  0  0  0  0
    6.5876    0.9416   -1.6226 H   0  0  0  0  0  0  0  0  0  0  0  0
    7.4177    1.1911    0.7228 H   0  0  0  0  0  0  0  0  0  0  0  0
    5.7828    0.9318    2.5930 H   0  0  0  0  0  0  0  0  0  0  0  0
  1  2  1  0
  2  3  2  0
  3  4  1  0
  4  5  2  0
  5  6  1  0
  6  7  2  0
  7  8  1  0
  8  9  1  0
  9 10  2  0
 10 11  1  0
 11 12  1  0
 12 13  2  0
 13 14  1  0
 14 15  2  0
 15 16  1  0
 16 17  1  0
 17 18  2  0
 18 19  1  0
 19 20  1  0
 20 21  2  0
  7 22  1  0
 22 23  2  0
  4 24  1  0
 24 25  2  0
 25 26  1  0
 26 27  2  0
 27 28  1  0
 28 29  2  0
 23  1  1  0
 29 24  1  0
 22  3  1  0
 21  6  1  0
 16  8  2  0
 21 17  1  0
 13  9  1  0
  1 30  1  0
  1 31  1  0
  2 32  1  0
  5 33  1  0
 10 34  1  0
 11 35  1  0
 12 36  1  0
 14 37  1  0
 15 38  1  0
 18 39  1  0
 19 40  1  0
 19 41  1  0
 20 42  1  0
 23 43  1  0
 25 44  1  0
 26 45  1  0
 27 46  1  0
 28 47  1  0
M  END
