
     RDKit          3D

 32 36  0  0  0  0  0  0  0  0999 V2000
   -2.2790   -0.9827    0.3871 C   0  0  0  0  0  0  0  0  0  0  0  0
   -3.0523   -0.1320   -0.3836 C   0  0  0  0  0  0  0  0  0  0  0  0
   -2.0639    1.0357   -1.1558 S   0  0  0  0  0  0  0  0  0  0  0  0
   -0.6185    0.4114   -0.4679 C   0  0  0  0  0  0  0  0  0  0  0  0
    0.6863    0.8843   -0.6546 C   0  0  0  0  0  0  0  0  0  0  0  0
    1.7684    0.2624   -0.0193 C   0  0  0  0  0  0  0  0  0  0  0  0
    1.5044   -0.8312    0.7961 C   0  0  0  0  0  0  0  0  0  0  0  0
    0.2120   -1.3094    0.9887 C   0  0  0  0  0  0  0  0  0  0  0  0
   -0.8767   -0.6859    0.3512 C   0  0  0  0  0  0  0  0  0  0  0  0
    2.7068   -1.2635    1.3005 N   0  0  0  0  0  0  0  0  0  0  0  0
    3.7413   -0.4842    0.8374 C   0  0  0  0  0  0  0  0  0  0  0  0
    5.1159   -0.5636    1.0908 C   0  0  0  0  0  0  0  0  0  0  0  0
    5.9432    0.3783    0.4721 C   0  0  0  0  0  0  0  0  0  0  0  0
    5.4151    1.3583   -0.3651 C   0  0  0  0  0  0  0  0  0  0  0  0
    4.0380    1.4229   -0.6073 C   0  0  0  0  0  0  0  0  0  0  0  0
    3.1814    0.4845    0.0046 C   0  0  0  0  0  0  0  0  0  0  0  0
   -4.5074   -0.1470   -0.5746 C   0  0  0  0  0  0  0  0  0  0  0  0
   -5.1745   -1.1041    0.0782 N   0  0  0  0  0  0  0  0  0  0  0  0
   -6.4887   -1.0821   -0.1221 C   0  0  0  0  0  0  0  0  0  0  0  0
   -7.1514   -0.2184   -0.8874 N   0  0  0  0  0  0  0  0  0  0  0  0
   -6.3749    0.6840   -1.4824 C   0  0  0  0  0  0  0  0  0  0  0  0
   -5.0541    0.7753   -1.3695 N   0  0  0  0  0  0  0  0  0  0  0  0
   -2.7050   -1.7968    0.9621 H   0  0  0  0  0  0  0  0  0  0  0  0
    0.8638    1.7421   -1.2983 H   0  0  0  0  0  0  0  0  0  0  0  0
    0.0340   -2.1673    1.6324 H   0  0  0  0  0  0  0  0  0  0  0  0
    2.8185   -2.0470    1.9267 H   0  0  0  0  0  0  0  0  0  0  0  0
    5.5316   -1.3253    1.7423 H   0  0  0  0  0  0  0  0  0  0  0  0
    7.0161    0.3446    0.6479 H   0  0  0  0  0  0  0  0  0  0  0  0
    6.0767    2.0811   -0.8361 H   0  0  0  0  0  0  0  0  0  0  0  0
    3.6349    2.1903   -1.2614 H   0  0  0  0  0  0  0  0  0  0  0  0
   -7.0765   -1.8392    0.3860 H   0  0  0  0  0  0  0  0  0  0  0  0
   -6.8655    1.4128   -2.1187 H   0  0  0  0  0  0  0  0  0  0  0  0
  1  2  2  0
  2  3  1  0
  3  4  1  0
  4  5  2  0
  5  6  1  0
  6  7  2  0
  7  8  1  0
  8  9  2  0
  7 10  1  0
 10 11  1  0
 11 12  2  0
 12 13  1  0
 13 14  2  0
 14 15  1  0
 15 16  2  0
  2 17  1  0
 17 18  2  0
 18 19  1  0
 19 20  2  0
 20 21  1  0
 21 22  2  0
  9  1  1  0
 16 11  1  0
 22 17  1  0
  9  4  1  0
 16  6  1  0
  1 23  1  0
  5 24  1  0
  8 25  1  0
 10 26  1  0
 12 27  1  0
 13 28  1  0
 14 29  1  0
 15 30  1  0
 19 31  1  0
 21 32  1  0
M  END
