
     RDKit          3D

 34 38  0  0  0  0  0  0  0  0999 V2000
   -1.5756   -0.9547    0.1016 C   0  0  0  0  0  0  0  0  0  0  0  0
   -2.3852    0.1686    0.1666 C   0  0  0  0  0  0  0  0  0  0  0  0
   -1.4033    1.5785    0.2195 S   0  0  0  0  0  0  0  0  0  0  0  0
    0.0662    0.6984    0.1567 C   0  0  0  0  0  0  0  0  0  0  0  0
    1.3685    1.2107    0.1624 C   0  0  0  0  0  0  0  0  0  0  0  0
    2.4719    0.3516    0.1058 C   0  0  0  0  0  0  0  0  0  0  0  0
    2.2346   -1.0178    0.0442 C   0  0  0  0  0  0  0  0  0  0  0  0
    0.9432   -1.5361    0.0379 C   0  0  0  0  0  0  0  0  0  0  0  0
   -0.1677   -0.6722    0.0949 C   0  0  0  0  0  0  0  0  0  0  0  0
    3.4587   -1.6450   -0.0032 N   0  0  0  0  0  0  0  0  0  0  0  0
    4.4772   -0.7235    0.0261 C   0  0  0  0  0  0  0  0  0  0  0  0
    5.8633   -0.8751   -0.0009 C   0  0  0  0  0  0  0  0  0  0  0  0
    6.6025    0.3039    0.0446 C   0  0  0  0  0  0  0  0  0  0  0  0
    5.9387    1.5217    0.1119 C   0  0  0  0  0  0  0  0  0  0  0  0
    4.5998    1.6870    0.1389 N   0  0  0  0  0  0  0  0  0  0  0  0
    3.8835    0.5345    0.0944 C   0  0  0  0  0  0  0  0  0  0  0  0
   -3.8684    0.2525    0.1918 C   0  0  0  0  0  0  0  0  0  0  0  0
   -4.5593    1.4760    0.2595 C   0  0  0  0  0  0  0  0  0  0  0  0
   -5.9585    1.5264    0.2820 C   0  0  0  0  0  0  0  0  0  0  0  0
   -6.7013    0.3523    0.2370 C   0  0  0  0  0  0  0  0  0  0  0  0
   -6.0455   -0.8714    0.1697 C   0  0  0  0  0  0  0  0  0  0  0  0
   -4.6465   -0.9189    0.1474 C   0  0  0  0  0  0  0  0  0  0  0  0
   -1.9597   -1.9653    0.0590 H   0  0  0  0  0  0  0  0  0  0  0  0
    1.5362    2.2843    0.2111 H   0  0  0  0  0  0  0  0  0  0  0  0
    0.7815   -2.6100   -0.0108 H   0  0  0  0  0  0  0  0  0  0  0  0
    3.5893   -2.6449   -0.0525 H   0  0  0  0  0  0  0  0  0  0  0  0
    6.3406   -1.8465   -0.0539 H   0  0  0  0  0  0  0  0  0  0  0  0
    7.6871    0.2757    0.0277 H   0  0  0  0  0  0  0  0  0  0  0  0
    6.5057    2.4491    0.1479 H   0  0  0  0  0  0  0  0  0  0  0  0
   -4.0275    2.4233    0.2968 H   0  0  0  0  0  0  0  0  0  0  0  0
   -6.4629    2.4880    0.3347 H   0  0  0  0  0  0  0  0  0  0  0  0
   -7.7871    0.3915    0.2544 H   0  0  0  0  0  0  0  0  0  0  0  0
   -6.6193   -1.7940    0.1342 H   0  0  0  0  0  0  0  0  0  0  0  0
   -4.1809   -1.8988    0.0943 H   0  0  0  0  0  0  0  0  0  0  0  0
  1  2  2  0
  2  3  1  0
  3  4  1  0
  4  5  2  0
  5  6  1  0
  6  7  2  0
  7  8  1  0
  8  9  2  0
  7 10  1  0
 10 11  1  0
 11 12  2  0
 12 13  1  0
 13 14  2  0
 14 15  1  0
 15 16  2  0
  2 17  1  0
 17 18  2  0
 18 19  1  0
 19 20  2  0
 20 21  1  0
 21 22  2  0
  9  1  1  0
 16 11  1  0
 22 17  1  0
  9  4  1  0
 16  6  1  0
  1 23  1  0
  5 24  1  0
  8 25  1  0
 10 26  1  0
 12 27  1  0
 13 28  1  0
 14 29  1  0
 18 30  1  0
 19 31  1  0
 20 32  1  0
 21 33  1  0
 22 34  1  0
M  END
