
     RDKit          3D

 41 47  0  0  0  0  0  0  0  0999 V2000
    6.5891   -1.6253   -0.7005 C   0  0  0  0  0  0  0  0  0  0  0  0
    6.9616   -0.6049    0.1441 C   0  0  0  0  0  0  0  0  0  0  0  0
    5.8212    0.0247    0.5733 N   0  0  0  0  0  0  0  0  0  0  0  0
    4.7174   -0.5762    0.0173 C   0  0  0  0  0  0  0  0  0  0  0  0
    5.1755   -1.6073   -0.7808 C   0  0  0  0  0  0  0  0  0  0  0  0
    3.3693   -0.1597    0.2616 C   0  0  0  0  0  0  0  0  0  0  0  0
    2.9004    0.8711    1.0716 C   0  0  0  0  0  0  0  0  0  0  0  0
    1.5204    0.8234    0.9296 C   0  0  0  0  0  0  0  0  0  0  0  0
    0.4714    1.5433    1.5237 C   0  0  0  0  0  0  0  0  0  0  0  0
    0.5088    2.4997    2.4852 C   0  0  0  0  0  0  0  0  0  0  0  0
   -0.7895    2.7722    2.8244 O   0  0  0  0  0  0  0  0  0  0  0  0
   -1.5954    1.9697    2.0525 C   0  0  0  0  0  0  0  0  0  0  0  0
   -0.8543    1.2292    1.1554 C   0  0  0  0  0  0  0  0  0  0  0  0
   -1.3173    0.2561    0.2069 C   0  0  0  0  0  0  0  0  0  0  0  0
   -0.2003   -0.5174   -0.2563 C   0  0  0  0  0  0  0  0  0  0  0  0
   -0.4006   -1.6563   -1.0443 C   0  0  0  0  0  0  0  0  0  0  0  0
   -1.6929   -2.0720   -1.3689 C   0  0  0  0  0  0  0  0  0  0  0  0
   -2.8271   -1.3299   -1.0184 C   0  0  0  0  0  0  0  0  0  0  0  0
   -4.1056   -1.8456   -1.4282 C   0  0  0  0  0  0  0  0  0  0  0  0
   -5.3412   -1.1998   -1.2422 C   0  0  0  0  0  0  0  0  0  0  0  0
   -5.1652    0.0552   -0.6805 C   0  0  0  0  0  0  0  0  0  0  0  0
   -6.2236    0.9169   -0.5247 C   0  0  0  0  0  0  0  0  0  0  0  0
   -5.6935    2.4476    0.0321 S   0  0  0  0  0  0  0  0  0  0  0  0
   -4.0500    1.9426    0.0461 C   0  0  0  0  0  0  0  0  0  0  0  0
   -3.9020    0.6046   -0.2411 C   0  0  0  0  0  0  0  0  0  0  0  0
   -2.6464   -0.0941   -0.2936 C   0  0  0  0  0  0  0  0  0  0  0  0
    1.1438   -0.1884    0.0845 C   0  0  0  0  0  0  0  0  0  0  0  0
    2.2974   -0.8043   -0.3285 O   0  0  0  0  0  0  0  0  0  0  0  0
    7.2598   -2.3089   -1.2050 H   0  0  0  0  0  0  0  0  0  0  0  0
    7.9362   -0.2727    0.4759 H   0  0  0  0  0  0  0  0  0  0  0  0
    5.8000    0.8135    1.2043 H   0  0  0  0  0  0  0  0  0  0  0  0
    4.5515   -2.2762   -1.3603 H   0  0  0  0  0  0  0  0  0  0  0  0
    3.4936    1.5404    1.6755 H   0  0  0  0  0  0  0  0  0  0  0  0
    1.2691    3.0262    3.0428 H   0  0  0  0  0  0  0  0  0  0  0  0
   -2.6438    2.0386    2.3029 H   0  0  0  0  0  0  0  0  0  0  0  0
    0.4440   -2.2571   -1.3782 H   0  0  0  0  0  0  0  0  0  0  0  0
   -1.7960   -2.9932   -1.9419 H   0  0  0  0  0  0  0  0  0  0  0  0
   -4.1366   -2.8116   -1.9377 H   0  0  0  0  0  0  0  0  0  0  0  0
   -6.2802   -1.6191   -1.5774 H   0  0  0  0  0  0  0  0  0  0  0  0
   -7.2701    0.7546   -0.7441 H   0  0  0  0  0  0  0  0  0  0  0  0
   -3.2990    2.6905    0.2449 H   0  0  0  0  0  0  0  0  0  0  0  0
  1  2  2  0
  2  3  1  0
  3  4  1  0
  4  5  2  0
  4  6  1  0
  6  7  2  0
  7  8  1  0
  8  9  1  0
  9 10  2  0
 10 11  1  0
 11 12  1  0
 12 13  2  0
 13 14  1  0
 14 15  2  0
 15 16  1  0
 16 17  2  0
 17 18  1  0
 18 19  1  0
 19 20  2  0
 20 21  1  0
 21 22  2  0
 22 23  1  0
 23 24  1  0
 24 25  2  0
 25 26  1  0
 15 27  1  0
 27 28  1  0
  5  1  1  0
 28  6  1  0
 27  8  2  0
 13  9  1  0
 26 14  1  0
 26 18  2  0
 25 21  1  0
  1 29  1  0
  2 30  1  0
  3 31  1  0
  5 32  1  0
  7 33  1  0
 10 34  1  0
 12 35  1  0
 16 36  1  0
 17 37  1  0
 19 38  1  0
 20 39  1  0
 22 40  1  0
 24 41  1  0
M  END
