
     RDKit          3D

 43 49  0  0  0  0  0  0  0  0999 V2000
    6.7103   -0.5782   -0.2871 C   0  0  0  0  0  0  0  0  0  0  0  0
    6.1407   -1.8225   -0.1573 C   0  0  0  0  0  0  0  0  0  0  0  0
    4.7807   -1.6584   -0.0942 N   0  0  0  0  0  0  0  0  0  0  0  0
    4.4589   -0.3234   -0.1814 C   0  0  0  0  0  0  0  0  0  0  0  0
    5.6537    0.3643   -0.3023 C   0  0  0  0  0  0  0  0  0  0  0  0
    3.1223    0.1949   -0.1475 C   0  0  0  0  0  0  0  0  0  0  0  0
    2.7050    1.5114   -0.2279 C   0  0  0  0  0  0  0  0  0  0  0  0
    1.3180    1.4540   -0.1458 C   0  0  0  0  0  0  0  0  0  0  0  0
    0.3716    2.4892   -0.1745 C   0  0  0  0  0  0  0  0  0  0  0  0
    0.5947    3.8224   -0.2919 C   0  0  0  0  0  0  0  0  0  0  0  0
   -0.6251    4.4310   -0.2717 O   0  0  0  0  0  0  0  0  0  0  0  0
   -1.5719    3.4427   -0.1409 C   0  0  0  0  0  0  0  0  0  0  0  0
   -1.0020    2.1848   -0.0738 C   0  0  0  0  0  0  0  0  0  0  0  0
   -1.6340    0.8975    0.0629 C   0  0  0  0  0  0  0  0  0  0  0  0
   -3.1040    0.5639    0.1713 C   0  0  0  0  0  0  0  0  0  0  0  0
   -4.1704    1.4988    0.1572 C   0  0  0  0  0  0  0  0  0  0  0  0
   -5.5285    1.1489    0.2607 C   0  0  0  0  0  0  0  0  0  0  0  0
   -5.9056   -0.1764    0.3862 C   0  0  0  0  0  0  0  0  0  0  0  0
   -4.9228   -1.1520    0.4081 C   0  0  0  0  0  0  0  0  0  0  0  0
   -3.5537   -0.7900    0.3031 C   0  0  0  0  0  0  0  0  0  0  0  0
   -2.4964   -1.7241    0.3176 C   0  0  0  0  0  0  0  0  0  0  0  0
   -2.6331   -3.0889    0.4328 C   0  0  0  0  0  0  0  0  0  0  0  0
   -1.3750   -3.6302    0.4051 N   0  0  0  0  0  0  0  0  0  0  0  0
   -0.4371   -2.6287    0.2738 C   0  0  0  0  0  0  0  0  0  0  0  0
   -1.1006   -1.4215    0.2158 C   0  0  0  0  0  0  0  0  0  0  0  0
   -0.5656   -0.1252    0.0838 C   0  0  0  0  0  0  0  0  0  0  0  0
    0.8309    0.1704   -0.0175 C   0  0  0  0  0  0  0  0  0  0  0  0
    1.9867   -0.5881   -0.0224 N   0  0  0  0  0  0  0  0  0  0  0  0
    7.7693   -0.3683   -0.3628 H   0  0  0  0  0  0  0  0  0  0  0  0
    6.5834   -2.8081   -0.1044 H   0  0  0  0  0  0  0  0  0  0  0  0
    4.1220   -2.4162    0.0022 H   0  0  0  0  0  0  0  0  0  0  0  0
    5.7583    1.4377   -0.3926 H   0  0  0  0  0  0  0  0  0  0  0  0
    3.3399    2.3803   -0.3318 H   0  0  0  0  0  0  0  0  0  0  0  0
    1.4547    4.4680   -0.3908 H   0  0  0  0  0  0  0  0  0  0  0  0
   -2.5685    3.8471   -0.1171 H   0  0  0  0  0  0  0  0  0  0  0  0
   -3.9854    2.5568    0.0635 H   0  0  0  0  0  0  0  0  0  0  0  0
   -6.2865    1.9286    0.2416 H   0  0  0  0  0  0  0  0  0  0  0  0
   -6.9540   -0.4474    0.4661 H   0  0  0  0  0  0  0  0  0  0  0  0
   -5.2199   -2.1914    0.5066 H   0  0  0  0  0  0  0  0  0  0  0  0
   -3.4971   -3.7310    0.5316 H   0  0  0  0  0  0  0  0  0  0  0  0
   -1.1670   -4.6184    0.4714 H   0  0  0  0  0  0  0  0  0  0  0  0
    0.5981   -2.9166    0.2387 H   0  0  0  0  0  0  0  0  0  0  0  0
    2.0051   -1.5877    0.0553 H   0  0  0  0  0  0  0  0  0  0  0  0
  1  2  2  0
  2  3  1  0
  3  4  1  0
  4  5  2  0
  4  6  1  0
  6  7  2  0
  7  8  1  0
  8  9  1  0
  9 10  2  0
 10 11  1  0
 11 12  1  0
 12 13  2  0
 13 14  1  0
 14 15  1  0
 15 16  2  0
 16 17  1  0
 17 18  2  0
 18 19  1  0
 19 20  2  0
 20 21  1  0
 21 22  2  0
 22 23  1  0
 23 24  1  0
 24 25  2  0
 25 26  1  0
 26 27  1  0
 27 28  1  0
  5  1  1  0
 28  6  1  0
 27  8  2  0
 13  9  1  0
 26 14  2  0
 20 15  1  0
 25 21  1  0
  1 29  1  0
  2 30  1  0
  3 31  1  0
  5 32  1  0
  7 33  1  0
 10 34  1  0
 12 35  1  0
 16 36  1  0
 17 37  1  0
 18 38  1  0
 19 39  1  0
 22 40  1  0
 23 41  1  0
 24 42  1  0
 28 43  1  0
M  END
