
     RDKit          3D

 38 44  0  0  0  0  0  0  0  0999 V2000
    6.0314   -0.1453   -1.5677 C   0  0  0  0  0  0  0  0  0  0  0  0
    6.4733   -0.1075   -0.2651 C   0  0  0  0  0  0  0  0  0  0  0  0
    5.3730   -0.0628    0.5526 N   0  0  0  0  0  0  0  0  0  0  0  0
    4.2266   -0.0713   -0.2057 C   0  0  0  0  0  0  0  0  0  0  0  0
    4.6159   -0.1225   -1.5306 C   0  0  0  0  0  0  0  0  0  0  0  0
    2.9055   -0.0325    0.3430 C   0  0  0  0  0  0  0  0  0  0  0  0
    2.5069    0.0191    1.6739 C   0  0  0  0  0  0  0  0  0  0  0  0
    1.1141    0.0387    1.6274 C   0  0  0  0  0  0  0  0  0  0  0  0
    0.1571    0.0889    2.6688 C   0  0  0  0  0  0  0  0  0  0  0  0
    0.5270    0.1267    3.9399 N   0  0  0  0  0  0  0  0  0  0  0  0
   -0.9452    0.1762    4.7342 S   0  0  0  0  0  0  0  0  0  0  0  0
   -1.9907    0.1478    3.4376 N   0  0  0  0  0  0  0  0  0  0  0  0
   -1.2613    0.0978    2.3008 C   0  0  0  0  0  0  0  0  0  0  0  0
   -1.7474    0.0586    0.9353 C   0  0  0  0  0  0  0  0  0  0  0  0
   -3.1678    0.0683    0.5874 C   0  0  0  0  0  0  0  0  0  0  0  0
   -4.1250    0.1153    1.5363 N   0  0  0  0  0  0  0  0  0  0  0  0
   -5.4369    0.1236    1.1960 C   0  0  0  0  0  0  0  0  0  0  0  0
   -5.9050    0.0864   -0.1013 C   0  0  0  0  0  0  0  0  0  0  0  0
   -4.9690    0.0374   -1.1176 C   0  0  0  0  0  0  0  0  0  0  0  0
   -3.5990    0.0281   -0.7779 C   0  0  0  0  0  0  0  0  0  0  0  0
   -2.5290   -0.0195   -1.6964 C   0  0  0  0  0  0  0  0  0  0  0  0
   -2.5852   -0.0655   -3.0660 C   0  0  0  0  0  0  0  0  0  0  0  0
   -1.3189   -0.1023   -3.5779 O   0  0  0  0  0  0  0  0  0  0  0  0
   -0.4498   -0.0794   -2.5231 C   0  0  0  0  0  0  0  0  0  0  0  0
   -1.1516   -0.0285   -1.3454 C   0  0  0  0  0  0  0  0  0  0  0  0
   -0.6686    0.0088   -0.0403 C   0  0  0  0  0  0  0  0  0  0  0  0
    0.6765    0.0011    0.3336 C   0  0  0  0  0  0  0  0  0  0  0  0
    1.7851   -0.0431   -0.4659 O   0  0  0  0  0  0  0  0  0  0  0  0
    6.6578   -0.1850   -2.4495 H   0  0  0  0  0  0  0  0  0  0  0  0
    7.4722   -0.1085    0.1503 H   0  0  0  0  0  0  0  0  0  0  0  0
    5.4045   -0.0288    1.5623 H   0  0  0  0  0  0  0  0  0  0  0  0
    3.9471   -0.1414   -2.3819 H   0  0  0  0  0  0  0  0  0  0  0  0
    3.1434    0.0393    2.5465 H   0  0  0  0  0  0  0  0  0  0  0  0
   -6.1237    0.1628    2.0375 H   0  0  0  0  0  0  0  0  0  0  0  0
   -6.9682    0.0954   -0.3102 H   0  0  0  0  0  0  0  0  0  0  0  0
   -5.2955    0.0070   -2.1521 H   0  0  0  0  0  0  0  0  0  0  0  0
   -3.3780   -0.0786   -3.8005 H   0  0  0  0  0  0  0  0  0  0  0  0
    0.5984   -0.1044   -2.7884 H   0  0  0  0  0  0  0  0  0  0  0  0
  1  2  2  0
  2  3  1  0
  3  4  1  0
  4  5  2  0
  4  6  1  0
  6  7  2  0
  7  8  1  0
  8  9  1  0
  9 10  2  0
 10 11  1  0
 11 12  1  0
 12 13  2  0
 13 14  1  0
 14 15  1  0
 15 16  2  0
 16 17  1  0
 17 18  2  0
 18 19  1  0
 19 20  2  0
 20 21  1  0
 21 22  2  0
 22 23  1  0
 23 24  1  0
 24 25  2  0
 25 26  1  0
 26 27  1  0
 27 28  1  0
  5  1  1  0
 28  6  1  0
 27  8  2  0
 13  9  1  0
 26 14  2  0
 20 15  1  0
 25 21  1  0
  1 29  1  0
  2 30  1  0
  3 31  1  0
  5 32  1  0
  7 33  1  0
 17 34  1  0
 18 35  1  0
 19 36  1  0
 22 37  1  0
 24 38  1  0
M  END
