
     RDKit          3D

 36 41  0  0  0  0  0  0  0  0999 V2000
    6.6639   -0.7783    0.4356 C   0  0  0  0  0  0  0  0  0  0  0  0
    6.5942    0.4686   -0.1366 C   0  0  0  0  0  0  0  0  0  0  0  0
    5.2700    0.7904   -0.2874 N   0  0  0  0  0  0  0  0  0  0  0  0
    4.4680   -0.2314    0.1795 C   0  0  0  0  0  0  0  0  0  0  0  0
    5.3341   -1.2170    0.6337 C   0  0  0  0  0  0  0  0  0  0  0  0
    3.0039   -0.2104    0.1664 C   0  0  0  0  0  0  0  0  0  0  0  0
    2.2529    0.8436   -0.3189 C   0  0  0  0  0  0  0  0  0  0  0  0
    0.8710    0.7769   -0.2916 C   0  0  0  0  0  0  0  0  0  0  0  0
    0.2035    1.8269   -0.7748 N   0  0  0  0  0  0  0  0  0  0  0  0
   -1.1508    1.8014   -0.7663 C   0  0  0  0  0  0  0  0  0  0  0  0
   -1.9617    0.7661   -0.2932 C   0  0  0  0  0  0  0  0  0  0  0  0
   -3.4183    0.8395   -0.3303 C   0  0  0  0  0  0  0  0  0  0  0  0
   -4.1609    1.9266   -0.8308 C   0  0  0  0  0  0  0  0  0  0  0  0
   -5.5154    2.0246   -0.8789 N   0  0  0  0  0  0  0  0  0  0  0  0
   -6.2250    0.9863   -0.4043 C   0  0  0  0  0  0  0  0  0  0  0  0
   -5.6408   -0.1465    0.1168 C   0  0  0  0  0  0  0  0  0  0  0  0
   -4.2337   -0.2137    0.1509 C   0  0  0  0  0  0  0  0  0  0  0  0
   -3.5623   -1.3570    0.6770 C   0  0  0  0  0  0  0  0  0  0  0  0
   -4.1577   -2.4544    1.1790 N   0  0  0  0  0  0  0  0  0  0  0  0
   -2.9559   -3.4828    1.6536 S   0  0  0  0  0  0  0  0  0  0  0  0
   -1.6294   -2.5880    1.2462 N   0  0  0  0  0  0  0  0  0  0  0  0
   -2.0576   -1.4296    0.7138 C   0  0  0  0  0  0  0  0  0  0  0  0
   -1.2302   -0.3509    0.2209 C   0  0  0  0  0  0  0  0  0  0  0  0
    0.2209   -0.3508    0.2243 C   0  0  0  0  0  0  0  0  0  0  0  0
    1.0771   -1.3636    0.6909 C   0  0  0  0  0  0  0  0  0  0  0  0
    2.4298   -1.3159    0.6722 N   0  0  0  0  0  0  0  0  0  0  0  0
    7.5695   -1.3159    0.6844 H   0  0  0  0  0  0  0  0  0  0  0  0
    7.3698    1.1546   -0.4495 H   0  0  0  0  0  0  0  0  0  0  0  0
    4.9393    1.6575   -0.6860 H   0  0  0  0  0  0  0  0  0  0  0  0
    5.0226   -2.1605    1.0658 H   0  0  0  0  0  0  0  0  0  0  0  0
    2.7181    1.7328   -0.7257 H   0  0  0  0  0  0  0  0  0  0  0  0
   -1.5682    2.7134   -1.1857 H   0  0  0  0  0  0  0  0  0  0  0  0
   -3.6798    2.8126   -1.2361 H   0  0  0  0  0  0  0  0  0  0  0  0
   -7.3047    1.0927   -0.4556 H   0  0  0  0  0  0  0  0  0  0  0  0
   -6.2590   -0.9582    0.4877 H   0  0  0  0  0  0  0  0  0  0  0  0
    0.7030   -2.2895    1.1147 H   0  0  0  0  0  0  0  0  0  0  0  0
  1  2  2  0
  2  3  1  0
  3  4  1  0
  4  5  2  0
  4  6  1  0
  6  7  2  0
  7  8  1  0
  8  9  2  0
  9 10  1  0
 10 11  2  0
 11 12  1  0
 12 13  2  0
 13 14  1  0
 14 15  2  0
 15 16  1  0
 16 17  2  0
 17 18  1  0
 18 19  2  0
 19 20  1  0
 20 21  1  0
 21 22  2  0
 22 23  1  0
 23 24  2  0
 24 25  1  0
 25 26  2  0
  5  1  1  0
 26  6  1  0
 24  8  1  0
 23 11  1  0
 17 12  1  0
 22 18  1  0
  1 27  1  0
  2 28  1  0
  3 29  1  0
  5 30  1  0
  7 31  1  0
 10 32  1  0
 13 33  1  0
 15 34  1  0
 16 35  1  0
 25 36  1  0
M  END
