
     RDKit          3D

 36 42  0  0  0  0  0  0  0  0999 V2000
    6.3161   -0.1775   -1.8533 C   0  0  0  0  0  0  0  0  0  0  0  0
    5.5209    0.2126   -2.9000 C   0  0  0  0  0  0  0  0  0  0  0  0
    4.2246    0.2248   -2.4590 N   0  0  0  0  0  0  0  0  0  0  0  0
    4.1490   -0.1534   -1.1289 C   0  0  0  0  0  0  0  0  0  0  0  0
    5.4614   -0.4060   -0.7484 C   0  0  0  0  0  0  0  0  0  0  0  0
    2.8791   -0.2326   -0.3832 C   0  0  0  0  0  0  0  0  0  0  0  0
    1.6289    0.0802   -0.9936 C   0  0  0  0  0  0  0  0  0  0  0  0
    0.4594   -0.0139   -0.2342 C   0  0  0  0  0  0  0  0  0  0  0  0
   -0.8192    0.2461   -0.6522 O   0  0  0  0  0  0  0  0  0  0  0  0
   -1.6142    0.0117    0.4503 C   0  0  0  0  0  0  0  0  0  0  0  0
   -0.8726   -0.3835    1.5340 C   0  0  0  0  0  0  0  0  0  0  0  0
   -1.8795   -0.6784    2.9243 S   0  0  0  0  0  0  0  0  0  0  0  0
   -3.3167   -0.2617    2.0257 C   0  0  0  0  0  0  0  0  0  0  0  0
   -4.6718   -0.2397    2.4552 C   0  0  0  0  0  0  0  0  0  0  0  0
   -5.7164    0.1293    1.5746 C   0  0  0  0  0  0  0  0  0  0  0  0
   -5.2869    0.4573    0.2858 C   0  0  0  0  0  0  0  0  0  0  0  0
   -6.1625    0.8399   -0.7048 C   0  0  0  0  0  0  0  0  0  0  0  0
   -5.3439    1.1829   -2.1899 S   0  0  0  0  0  0  0  0  0  0  0  0
   -3.7974    0.8196   -1.5162 C   0  0  0  0  0  0  0  0  0  0  0  0
   -3.9608    0.4582   -0.2116 C   0  0  0  0  0  0  0  0  0  0  0  0
   -2.9695    0.0763    0.7335 C   0  0  0  0  0  0  0  0  0  0  0  0
    0.4365   -0.3905    1.0706 C   0  0  0  0  0  0  0  0  0  0  0  0
    1.6026   -0.7222    1.7773 C   0  0  0  0  0  0  0  0  0  0  0  0
    1.6210   -1.0927    3.0453 N   0  0  0  0  0  0  0  0  0  0  0  0
    3.2535   -1.3477    3.3146 S   0  0  0  0  0  0  0  0  0  0  0  0
    3.8766   -0.9776    1.8086 N   0  0  0  0  0  0  0  0  0  0  0  0
    2.8469   -0.6323    1.0043 C   0  0  0  0  0  0  0  0  0  0  0  0
    7.3925   -0.2876   -1.8757 H   0  0  0  0  0  0  0  0  0  0  0  0
    5.7629    0.4825   -3.9192 H   0  0  0  0  0  0  0  0  0  0  0  0
    3.4390    0.4786   -3.0398 H   0  0  0  0  0  0  0  0  0  0  0  0
    5.7919   -0.7264    0.2311 H   0  0  0  0  0  0  0  0  0  0  0  0
    1.5524    0.3893   -2.0289 H   0  0  0  0  0  0  0  0  0  0  0  0
   -4.9128   -0.5118    3.4813 H   0  0  0  0  0  0  0  0  0  0  0  0
   -6.7511    0.1478    1.8965 H   0  0  0  0  0  0  0  0  0  0  0  0
   -7.2380    0.9428   -0.6580 H   0  0  0  0  0  0  0  0  0  0  0  0
   -2.9015    0.8969   -2.1160 H   0  0  0  0  0  0  0  0  0  0  0  0
  1  2  2  0
  2  3  1  0
  3  4  1  0
  4  5  2  0
  4  6  1  0
  6  7  2  0
  7  8  1  0
  8  9  1  0
  9 10  1  0
 10 11  2  0
 11 12  1  0
 12 13  1  0
 13 14  1  0
 14 15  2  0
 15 16  1  0
 16 17  2  0
 17 18  1  0
 18 19  1  0
 19 20  2  0
 20 21  1  0
 11 22  1  0
 22 23  1  0
 23 24  2  0
 24 25  1  0
 25 26  1  0
 26 27  2  0
  5  1  1  0
 27  6  1  0
 22  8  2  0
 27 23  1  0
 21 10  1  0
 21 13  2  0
 20 16  1  0
  1 28  1  0
  2 29  1  0
  3 30  1  0
  5 31  1  0
  7 32  1  0
 14 33  1  0
 15 34  1  0
 17 35  1  0
 19 36  1  0
M  END
