
     RDKit          3D

 45 50  0  0  0  0  0  0  0  0999 V2000
   -7.5537   -0.1568   -0.7362 C   0  0  0  0  0  0  0  0  0  0  0  0
   -7.3912    1.2059   -0.8255 C   0  0  0  0  0  0  0  0  0  0  0  0
   -6.0512    1.4772   -0.7358 N   0  0  0  0  0  0  0  0  0  0  0  0
   -5.3410    0.3077   -0.5770 C   0  0  0  0  0  0  0  0  0  0  0  0
   -6.2652   -0.7227   -0.5832 C   0  0  0  0  0  0  0  0  0  0  0  0
   -3.8960    0.2875   -0.4591 C   0  0  0  0  0  0  0  0  0  0  0  0
   -3.0335    0.8565   -1.4238 C   0  0  0  0  0  0  0  0  0  0  0  0
   -1.6062    0.8339   -1.3266 C   0  0  0  0  0  0  0  0  0  0  0  0
   -0.8893    0.2409   -0.2570 C   0  0  0  0  0  0  0  0  0  0  0  0
    0.5559    0.2280   -0.1780 C   0  0  0  0  0  0  0  0  0  0  0  0
    1.3234    1.3361    0.2561 C   0  0  0  0  0  0  0  0  0  0  0  0
    2.7520    1.3408    0.3395 C   0  0  0  0  0  0  0  0  0  0  0  0
    3.5774    0.2412   -0.0098 C   0  0  0  0  0  0  0  0  0  0  0  0
    5.0300    0.2732    0.0739 C   0  0  0  0  0  0  0  0  0  0  0  0
    5.6895    0.3704    1.3042 C   0  0  0  0  0  0  0  0  0  0  0  0
    7.0818    0.4045    1.3515 C   0  0  0  0  0  0  0  0  0  0  0  0
    7.7812    0.3444    0.1582 C   0  0  0  0  0  0  0  0  0  0  0  0
    7.1905    0.2571   -1.0515 N   0  0  0  0  0  0  0  0  0  0  0  0
    5.8357    0.2274   -1.0640 C   0  0  0  0  0  0  0  0  0  0  0  0
    2.8168   -0.8635   -0.4412 C   0  0  0  0  0  0  0  0  0  0  0  0
    3.3535   -2.0763   -0.8113 C   0  0  0  0  0  0  0  0  0  0  0  0
    2.1409   -3.1960   -1.2846 S   0  0  0  0  0  0  0  0  0  0  0  0
    0.8808   -2.0717   -0.9801 C   0  0  0  0  0  0  0  0  0  0  0  0
    1.3684   -0.8683   -0.5228 C   0  0  0  0  0  0  0  0  0  0  0  0
   -1.7496   -0.3149    0.7097 C   0  0  0  0  0  0  0  0  0  0  0  0
   -1.3166   -0.9329    1.8610 C   0  0  0  0  0  0  0  0  0  0  0  0
   -2.6284   -1.4784    2.8238 S   0  0  0  0  0  0  0  0  0  0  0  0
   -3.7899   -0.8832    1.7081 C   0  0  0  0  0  0  0  0  0  0  0  0
   -3.1975   -0.2953    0.6137 C   0  0  0  0  0  0  0  0  0  0  0  0
   -8.4960   -0.6876   -0.7790 H   0  0  0  0  0  0  0  0  0  0  0  0
   -8.1109    2.0044   -0.9464 H   0  0  0  0  0  0  0  0  0  0  0  0
   -5.6403    2.4009   -0.7612 H   0  0  0  0  0  0  0  0  0  0  0  0
   -6.0325   -1.7764   -0.4927 H   0  0  0  0  0  0  0  0  0  0  0  0
   -3.4697    1.3232   -2.3078 H   0  0  0  0  0  0  0  0  0  0  0  0
   -1.0397    1.2946   -2.1380 H   0  0  0  0  0  0  0  0  0  0  0  0
    0.7993    2.2470    0.5514 H   0  0  0  0  0  0  0  0  0  0  0  0
    3.2292    2.2593    0.6869 H   0  0  0  0  0  0  0  0  0  0  0  0
    5.1218    0.4109    2.2310 H   0  0  0  0  0  0  0  0  0  0  0  0
    7.6071    0.4742    2.2974 H   0  0  0  0  0  0  0  0  0  0  0  0
    8.8672    0.3662    0.1433 H   0  0  0  0  0  0  0  0  0  0  0  0
    5.3974    0.1659   -2.0576 H   0  0  0  0  0  0  0  0  0  0  0  0
    4.3897   -2.3858   -0.8359 H   0  0  0  0  0  0  0  0  0  0  0  0
   -0.1453   -2.3693   -1.1503 H   0  0  0  0  0  0  0  0  0  0  0  0
   -0.3044   -1.0990    2.2043 H   0  0  0  0  0  0  0  0  0  0  0  0
   -4.8415   -1.0014    1.9299 H   0  0  0  0  0  0  0  0  0  0  0  0
  1  2  2  0
  2  3  1  0
  3  4  1  0
  4  5  2  0
  4  6  1  0
  6  7  2  0
  7  8  1  0
  8  9  2  0
  9 10  1  0
 10 11  2  0
 11 12  1  0
 12 13  2  0
 13 14  1  0
 14 15  2  0
 15 16  1  0
 16 17  2  0
 17 18  1  0
 18 19  2  0
 13 20  1  0
 20 21  2  0
 21 22  1  0
 22 23  1  0
 23 24  2  0
  9 25  1  0
 25 26  2  0
 26 27  1  0
 27 28  1  0
 28 29  2  0
  5  1  1  0
 29  6  1  0
 24 10  1  0
 29 25  1  0
 19 14  1  0
 24 20  1  0
  1 30  1  0
  2 31  1  0
  3 32  1  0
  5 33  1  0
  7 34  1  0
  8 35  1  0
 11 36  1  0
 12 37  1  0
 15 38  1  0
 16 39  1  0
 17 40  1  0
 19 41  1  0
 21 42  1  0
 23 43  1  0
 26 44  1  0
 28 45  1  0
M  END
