
     RDKit          3D

 40 45  0  0  0  0  0  0  0  0999 V2000
    7.7783    0.6678    0.6391 C   0  0  0  0  0  0  0  0  0  0  0  0
    7.6551   -0.6866    0.8443 C   0  0  0  0  0  0  0  0  0  0  0  0
    6.3277   -1.0092    0.7418 N   0  0  0  0  0  0  0  0  0  0  0  0
    5.5828    0.1193    0.4699 C   0  0  0  0  0  0  0  0  0  0  0  0
    6.4769    1.1761    0.4114 C   0  0  0  0  0  0  0  0  0  0  0  0
    4.1312    0.0955    0.3165 C   0  0  0  0  0  0  0  0  0  0  0  0
    3.4797   -0.9285   -0.3672 C   0  0  0  0  0  0  0  0  0  0  0  0
    2.0884   -0.9057   -0.4991 C   0  0  0  0  0  0  0  0  0  0  0  0
    1.3591    0.1461    0.0527 C   0  0  0  0  0  0  0  0  0  0  0  0
    1.9760    1.1400    0.7426 N   0  0  0  0  0  0  0  0  0  0  0  0
    3.3290    1.0996    0.8447 C   0  0  0  0  0  0  0  0  0  0  0  0
   -0.1027    0.2620   -0.0228 C   0  0  0  0  0  0  0  0  0  0  0  0
   -0.8689    0.8344    1.0290 C   0  0  0  0  0  0  0  0  0  0  0  0
   -2.2752    0.9807    1.0104 C   0  0  0  0  0  0  0  0  0  0  0  0
   -3.0690    0.5710   -0.0752 C   0  0  0  0  0  0  0  0  0  0  0  0
   -4.5054    0.7090   -0.0957 C   0  0  0  0  0  0  0  0  0  0  0  0
   -5.3227    2.2338   -0.0422 S   0  0  0  0  0  0  0  0  0  0  0  0
   -6.9062    1.5078   -0.1277 C   0  0  0  0  0  0  0  0  0  0  0  0
   -6.7397    0.1685   -0.1731 C   0  0  0  0  0  0  0  0  0  0  0  0
   -7.4911   -1.0158   -0.2328 C   0  0  0  0  0  0  0  0  0  0  0  0
   -6.5409   -2.0459   -0.2361 C   0  0  0  0  0  0  0  0  0  0  0  0
   -5.2291   -1.6104   -0.1786 O   0  0  0  0  0  0  0  0  0  0  0  0
   -5.4355   -0.2637   -0.1539 C   0  0  0  0  0  0  0  0  0  0  0  0
   -2.3805    0.0040   -1.1846 C   0  0  0  0  0  0  0  0  0  0  0  0
   -2.9259   -0.4258   -2.3373 N   0  0  0  0  0  0  0  0  0  0  0  0
   -1.6902   -0.9679   -3.2888 S   0  0  0  0  0  0  0  0  0  0  0  0
   -0.3952   -0.6999   -2.2953 N   0  0  0  0  0  0  0  0  0  0  0  0
   -0.8658   -0.1549   -1.1574 C   0  0  0  0  0  0  0  0  0  0  0  0
    8.7030    1.2308    0.6538 H   0  0  0  0  0  0  0  0  0  0  0  0
    8.3950   -1.4476    1.0552 H   0  0  0  0  0  0  0  0  0  0  0  0
    5.9453   -1.9368    0.8699 H   0  0  0  0  0  0  0  0  0  0  0  0
    6.2212    2.2100    0.2111 H   0  0  0  0  0  0  0  0  0  0  0  0
    4.0377   -1.7383   -0.8278 H   0  0  0  0  0  0  0  0  0  0  0  0
    1.5966   -1.7141   -1.0315 H   0  0  0  0  0  0  0  0  0  0  0  0
    3.7613    1.9308    1.3966 H   0  0  0  0  0  0  0  0  0  0  0  0
   -0.3388    1.1886    1.9169 H   0  0  0  0  0  0  0  0  0  0  0  0
   -2.7539    1.4281    1.8821 H   0  0  0  0  0  0  0  0  0  0  0  0
   -7.8029    2.1100   -0.1307 H   0  0  0  0  0  0  0  0  0  0  0  0
   -8.5636   -1.1402   -0.2681 H   0  0  0  0  0  0  0  0  0  0  0  0
   -6.6413   -3.1225   -0.2741 H   0  0  0  0  0  0  0  0  0  0  0  0
  1  2  2  0
  2  3  1  0
  3  4  1  0
  4  5  2  0
  4  6  1  0
  6  7  2  0
  7  8  1  0
  8  9  2  0
  9 10  1  0
 10 11  2  0
  9 12  1  0
 12 13  2  0
 13 14  1  0
 14 15  2  0
 15 16  1  0
 16 17  1  0
 17 18  1  0
 18 19  2  0
 19 20  1  0
 20 21  2  0
 21 22  1  0
 22 23  1  0
 15 24  1  0
 24 25  2  0
 25 26  1  0
 26 27  1  0
 27 28  2  0
  5  1  1  0
 11  6  1  0
 28 12  1  0
 23 16  2  0
 28 24  1  0
 23 19  1  0
  1 29  1  0
  2 30  1  0
  3 31  1  0
  5 32  1  0
  7 33  1  0
  8 34  1  0
 11 35  1  0
 13 36  1  0
 14 37  1  0
 18 38  1  0
 20 39  1  0
 21 40  1  0
M  END
