
     RDKit          3D

 31 34  0  0  0  0  0  0  0  0999 V2000
   -6.5369   -0.6831    0.5115 C   0  0  0  0  0  0  0  0  0  0  0  0
   -6.6830    0.5791   -0.0123 C   0  0  0  0  0  0  0  0  0  0  0  0
   -5.4311    1.0770   -0.2640 N   0  0  0  0  0  0  0  0  0  0  0  0
   -4.4695    0.1553    0.0890 C   0  0  0  0  0  0  0  0  0  0  0  0
   -5.1474   -0.9505    0.5756 C   0  0  0  0  0  0  0  0  0  0  0  0
   -3.0570    0.3971   -0.0609 C   0  0  0  0  0  0  0  0  0  0  0  0
   -2.4393    1.5283   -0.5560 C   0  0  0  0  0  0  0  0  0  0  0  0
   -1.0149    1.4219   -0.5605 C   0  0  0  0  0  0  0  0  0  0  0  0
   -0.5631    0.2109   -0.0689 C   0  0  0  0  0  0  0  0  0  0  0  0
   -1.8913   -0.7754    0.3900 S   0  0  0  0  0  0  0  0  0  0  0  0
    0.8021   -0.2433    0.0742 C   0  0  0  0  0  0  0  0  0  0  0  0
    1.2742   -1.4502    0.5634 C   0  0  0  0  0  0  0  0  0  0  0  0
    2.6476   -1.6112    0.5835 N   0  0  0  0  0  0  0  0  0  0  0  0
    3.2262   -0.5303    0.1109 C   0  0  0  0  0  0  0  0  0  0  0  0
    2.1572    0.7203   -0.3760 S   0  0  0  0  0  0  0  0  0  0  0  0
    4.6536   -0.4199    0.0154 C   0  0  0  0  0  0  0  0  0  0  0  0
    5.6237   -1.3410    0.3678 C   0  0  0  0  0  0  0  0  0  0  0  0
    6.8900   -0.7732    0.0863 C   0  0  0  0  0  0  0  0  0  0  0  0
    6.6669    0.4820   -0.4316 C   0  0  0  0  0  0  0  0  0  0  0  0
    5.3119    0.6864   -0.4706 N   0  0  0  0  0  0  0  0  0  0  0  0
   -7.3400   -1.3423    0.8153 H   0  0  0  0  0  0  0  0  0  0  0  0
   -7.5663    1.1654   -0.2275 H   0  0  0  0  0  0  0  0  0  0  0  0
   -5.2447    1.9903   -0.6530 H   0  0  0  0  0  0  0  0  0  0  0  0
   -4.6945   -1.8630    0.9423 H   0  0  0  0  0  0  0  0  0  0  0  0
   -2.9665    2.4063   -0.9055 H   0  0  0  0  0  0  0  0  0  0  0  0
   -0.3640    2.2124   -0.9140 H   0  0  0  0  0  0  0  0  0  0  0  0
    0.6592   -2.2654    0.9260 H   0  0  0  0  0  0  0  0  0  0  0  0
    5.4290   -2.3216    0.7852 H   0  0  0  0  0  0  0  0  0  0  0  0
    7.8572   -1.2324    0.2453 H   0  0  0  0  0  0  0  0  0  0  0  0
    7.3529    1.2449   -0.7748 H   0  0  0  0  0  0  0  0  0  0  0  0
    4.8579    1.5254   -0.8063 H   0  0  0  0  0  0  0  0  0  0  0  0
  1  2  2  0
  2  3  1  0
  3  4  1  0
  4  5  2  0
  4  6  1  0
  6  7  2  0
  7  8  1  0
  8  9  2  0
  9 10  1  0
  9 11  1  0
 11 12  2  0
 12 13  1  0
 13 14  2  0
 14 15  1  0
 14 16  1  0
 16 17  2  0
 17 18  1  0
 18 19  2  0
 19 20  1  0
  5  1  1  0
 10  6  1  0
 15 11  1  0
 20 16  1  0
  1 21  1  0
  2 22  1  0
  3 23  1  0
  5 24  1  0
  7 25  1  0
  8 26  1  0
 12 27  1  0
 17 28  1  0
 18 29  1  0
 19 30  1  0
 20 31  1  0
M  END
