
     RDKit          3D

 36 41  0  0  0  0  0  0  0  0999 V2000
    6.5662    0.0427    0.1056 C   0  0  0  0  0  0  0  0  0  0  0  0
    6.1516   -1.2107    0.4797 C   0  0  0  0  0  0  0  0  0  0  0  0
    4.7819   -1.2239    0.4590 N   0  0  0  0  0  0  0  0  0  0  0  0
    4.2848    0.0078    0.0750 C   0  0  0  0  0  0  0  0  0  0  0  0
    5.4010    0.8053   -0.1477 C   0  0  0  0  0  0  0  0  0  0  0  0
    2.8455    0.3124   -0.0438 C   0  0  0  0  0  0  0  0  0  0  0  0
    2.4300    1.5970   -0.4425 C   0  0  0  0  0  0  0  0  0  0  0  0
    1.0738    1.9453   -0.5730 C   0  0  0  0  0  0  0  0  0  0  0  0
    0.1014    0.9745   -0.2949 C   0  0  0  0  0  0  0  0  0  0  0  0
    0.5272   -0.2921    0.0985 C   0  0  0  0  0  0  0  0  0  0  0  0
    1.8680   -0.6600    0.2347 C   0  0  0  0  0  0  0  0  0  0  0  0
   -0.5376   -1.1215    0.3318 O   0  0  0  0  0  0  0  0  0  0  0  0
   -1.6779   -0.3972    0.0907 C   0  0  0  0  0  0  0  0  0  0  0  0
   -1.2935    0.8681   -0.2877 C   0  0  0  0  0  0  0  0  0  0  0  0
   -2.3024    1.8232   -0.5968 C   0  0  0  0  0  0  0  0  0  0  0  0
   -2.0302    3.0639   -0.9697 N   0  0  0  0  0  0  0  0  0  0  0  0
   -3.5565    3.7175   -1.1964 S   0  0  0  0  0  0  0  0  0  0  0  0
   -4.5188    2.4020   -0.8131 N   0  0  0  0  0  0  0  0  0  0  0  0
   -3.6898    1.3859   -0.4887 C   0  0  0  0  0  0  0  0  0  0  0  0
   -4.0675    0.0581   -0.0911 C   0  0  0  0  0  0  0  0  0  0  0  0
   -5.4029   -0.3783    0.0177 C   0  0  0  0  0  0  0  0  0  0  0  0
   -5.6775   -1.6897    0.4121 C   0  0  0  0  0  0  0  0  0  0  0  0
   -4.6356   -2.5760    0.7008 C   0  0  0  0  0  0  0  0  0  0  0  0
   -3.3050   -2.1639    0.5993 C   0  0  0  0  0  0  0  0  0  0  0  0
   -3.0124   -0.8477    0.2038 C   0  0  0  0  0  0  0  0  0  0  0  0
    7.5927    0.3753    0.0228 H   0  0  0  0  0  0  0  0  0  0  0  0
    6.7095   -2.0944    0.7589 H   0  0  0  0  0  0  0  0  0  0  0  0
    4.2213   -2.0298    0.6942 H   0  0  0  0  0  0  0  0  0  0  0  0
    5.3896    1.8403   -0.4630 H   0  0  0  0  0  0  0  0  0  0  0  0
    3.1648    2.3682   -0.6641 H   0  0  0  0  0  0  0  0  0  0  0  0
    0.7934    2.9482   -0.8835 H   0  0  0  0  0  0  0  0  0  0  0  0
    2.1067   -1.6676    0.5459 H   0  0  0  0  0  0  0  0  0  0  0  0
   -6.2232    0.3013   -0.2041 H   0  0  0  0  0  0  0  0  0  0  0  0
   -6.7095   -2.0233    0.4950 H   0  0  0  0  0  0  0  0  0  0  0  0
   -4.8632   -3.5947    1.0069 H   0  0  0  0  0  0  0  0  0  0  0  0
   -2.5062   -2.8662    0.8276 H   0  0  0  0  0  0  0  0  0  0  0  0
  1  2  2  0
  2  3  1  0
  3  4  1  0
  4  5  2  0
  4  6  1  0
  6  7  2  0
  7  8  1  0
  8  9  2  0
  9 10  1  0
 10 11  2  0
 10 12  1  0
 12 13  1  0
 13 14  2  0
 14 15  1  0
 15 16  2  0
 16 17  1  0
 17 18  1  0
 18 19  2  0
 19 20  1  0
 20 21  2  0
 21 22  1  0
 22 23  2  0
 23 24  1  0
 24 25  2  0
  5  1  1  0
 11  6  1  0
 25 13  1  0
 14  9  1  0
 19 15  1  0
 25 20  1  0
  1 26  1  0
  2 27  1  0
  3 28  1  0
  5 29  1  0
  7 30  1  0
  8 31  1  0
 11 32  1  0
 21 33  1  0
 22 34  1  0
 23 35  1  0
 24 36  1  0
M  END
