
     RDKit          3D

 49 56  0  0  0  0  0  0  0  0999 V2000
   -1.5208   -0.1252   -4.1258 Si  0  0  0  0  0  4  0  0  0  0  0  0
   -2.5181   -0.4259   -2.5908 C   0  0  0  0  0  0  0  0  0  0  0  0
   -1.7440   -0.4200   -1.4855 C   0  0  0  0  0  0  0  0  0  0  0  0
   -2.2005   -0.7627   -0.1436 C   0  0  0  0  0  0  0  0  0  0  0  0
   -1.2449   -0.8927    0.8019 C   0  0  0  0  0  0  0  0  0  0  0  0
    0.2022   -0.6562    0.5896 C   0  0  0  0  0  0  0  0  0  0  0  0
    0.6485   -0.1094   -0.5852 C   0  0  0  0  0  0  0  0  0  0  0  0
    2.0332    0.5009   -0.6261 C   0  0  0  0  0  0  0  0  0  0  0  0
    2.3574    1.4570   -1.5837 C   0  0  0  0  0  0  0  0  0  0  0  0
    3.5386    2.1077   -1.6889 N   0  0  0  0  0  0  0  0  0  0  0  0
    4.4488    1.9117   -0.7350 C   0  0  0  0  0  0  0  0  0  0  0  0
    5.6205    2.6387   -0.8356 C   0  0  0  0  0  0  0  0  0  0  0  0
    6.5657    2.5505    0.1637 C   0  0  0  0  0  0  0  0  0  0  0  0
    6.3984    1.8005    1.2612 N   0  0  0  0  0  0  0  0  0  0  0  0
    5.2449    1.0917    1.3345 C   0  0  0  0  0  0  0  0  0  0  0  0
    4.2336    1.0504    0.3546 C   0  0  0  0  0  0  0  0  0  0  0  0
    3.0142    0.2850    0.3736 C   0  0  0  0  0  0  0  0  0  0  0  0
    2.6321   -0.6745    1.4398 C   0  0  0  0  0  0  0  0  0  0  0  0
    3.4554   -1.3660    2.2568 C   0  0  0  0  0  0  0  0  0  0  0  0
    2.5132   -2.3992    3.4972 Si  0  0  0  0  0  4  0  0  0  0  0  0
    0.9550   -1.8650    2.6347 C   0  0  0  0  0  0  0  0  0  0  0  0
    1.2021   -1.0213    1.6073 C   0  0  0  0  0  0  0  0  0  0  0  0
   -0.3048   -0.1332   -1.7238 C   0  0  0  0  0  0  0  0  0  0  0  0
   -0.0016   -0.0284   -3.0368 C   0  0  0  0  0  0  0  0  0  0  0  0
   -3.5620   -0.9580    0.2443 C   0  0  0  0  0  0  0  0  0  0  0  0
   -4.1408   -2.4877    0.8827 S   0  0  0  0  0  0  0  0  0  0  0  0
   -5.7771   -1.9352    1.0629 C   0  0  0  0  0  0  0  0  0  0  0  0
   -5.8305   -0.6591    0.6362 C   0  0  0  0  0  0  0  0  0  0  0  0
   -6.9290    0.1490    0.5996 N   0  0  0  0  0  0  0  0  0  0  0  0
   -6.3851    1.3207    0.0753 C   0  0  0  0  0  0  0  0  0  0  0  0
   -5.0035    1.1835   -0.1803 C   0  0  0  0  0  0  0  0  0  0  0  0
   -4.6379   -0.1361    0.1937 C   0  0  0  0  0  0  0  0  0  0  0  0
   -1.4864   -1.2972   -5.0328 H   0  0  0  0  0  0  0  0  0  0  0  0
   -1.8274    1.1764   -4.7658 H   0  0  0  0  0  0  0  0  0  0  0  0
   -3.5730   -0.6459   -2.6466 H   0  0  0  0  0  0  0  0  0  0  0  0
   -1.5383   -1.1256    1.8223 H   0  0  0  0  0  0  0  0  0  0  0  0
    1.6401    1.7967   -2.3233 H   0  0  0  0  0  0  0  0  0  0  0  0
    5.7852    3.2902   -1.6868 H   0  0  0  0  0  0  0  0  0  0  0  0
    7.4937    3.1117    0.1126 H   0  0  0  0  0  0  0  0  0  0  0  0
    5.1515    0.5676    2.2773 H   0  0  0  0  0  0  0  0  0  0  0  0
    4.5304   -1.4002    2.2739 H   0  0  0  0  0  0  0  0  0  0  0  0
    2.7852   -3.8481    3.3456 H   0  0  0  0  0  0  0  0  0  0  0  0
    2.6212   -1.8584    4.8731 H   0  0  0  0  0  0  0  0  0  0  0  0
    0.0179   -2.3244    2.9040 H   0  0  0  0  0  0  0  0  0  0  0  0
    0.9661    0.0712   -3.4998 H   0  0  0  0  0  0  0  0  0  0  0  0
   -6.5627   -2.5660    1.4533 H   0  0  0  0  0  0  0  0  0  0  0  0
   -7.8757   -0.0698    0.8847 H   0  0  0  0  0  0  0  0  0  0  0  0
   -7.0312    2.1761   -0.0757 H   0  0  0  0  0  0  0  0  0  0  0  0
   -4.3600    1.9537   -0.5844 H   0  0  0  0  0  0  0  0  0  0  0  0
  1  2  1  0
  2  3  2  0
  3  4  1  0
  4  5  2  0
  5  6  1  0
  6  7  2  0
  7  8  1  0
  8  9  2  0
  9 10  1  0
 10 11  2  0
 11 12  1  0
 12 13  2  0
 13 14  1  0
 14 15  2  0
 15 16  1  0
 16 17  2  0
 17 18  1  0
 18 19  2  0
 19 20  1  0
 20 21  1  0
 21 22  2  0
  7 23  1  0
 23 24  2  0
  4 25  1  0
 25 26  1  0
 26 27  1  0
 27 28  2  0
 28 29  1  0
 29 30  1  0
 30 31  2  0
 31 32  1  0
 24  1  1  0
 32 25  2  0
 23  3  1  0
 32 28  1  0
 22  6  1  0
 17  8  1  0
 22 18  1  0
 16 11  1  0
  1 33  1  0
  1 34  1  0
  2 35  1  0
  5 36  1  0
  9 37  1  0
 12 38  1  0
 13 39  1  0
 15 40  1  0
 19 41  1  0
 20 42  1  0
 20 43  1  0
 21 44  1  0
 24 45  1  0
 27 46  1  0
 29 47  1  0
 30 48  1  0
 31 49  1  0
M  END
