
     RDKit          3D

 44 51  0  0  0  0  0  0  0  0999 V2000
   -7.1112    0.3706    0.9560 C   0  0  0  0  0  0  0  0  0  0  0  0
   -7.1372   -0.7589    0.1739 C   0  0  0  0  0  0  0  0  0  0  0  0
   -5.8440   -1.0859   -0.1387 N   0  0  0  0  0  0  0  0  0  0  0  0
   -4.9706   -0.1850    0.4363 C   0  0  0  0  0  0  0  0  0  0  0  0
   -5.7532    0.7358    1.1159 C   0  0  0  0  0  0  0  0  0  0  0  0
   -3.5198   -0.2612    0.2777 C   0  0  0  0  0  0  0  0  0  0  0  0
   -2.8386   -1.4603    0.1870 C   0  0  0  0  0  0  0  0  0  0  0  0
   -1.4936   -1.5814    0.0287 N   0  0  0  0  0  0  0  0  0  0  0  0
   -0.6936   -0.4932   -0.0360 C   0  0  0  0  0  0  0  0  0  0  0  0
   -1.3264    0.7729    0.0570 C   0  0  0  0  0  0  0  0  0  0  0  0
   -2.7356    0.8805    0.2118 C   0  0  0  0  0  0  0  0  0  0  0  0
   -0.4240    1.8540   -0.0738 C   0  0  0  0  0  0  0  0  0  0  0  0
   -0.8391    3.1668   -0.1460 C   0  0  0  0  0  0  0  0  0  0  0  0
    0.4576    4.2280   -0.4814 S   0  0  0  0  0  0  0  0  0  0  0  0
    1.5714    2.9279   -0.5259 C   0  0  0  0  0  0  0  0  0  0  0  0
    1.0129    1.7191   -0.1679 C   0  0  0  0  0  0  0  0  0  0  0  0
    1.7419    0.4860   -0.1053 C   0  0  0  0  0  0  0  0  0  0  0  0
    3.2324    0.2941   -0.0137 C   0  0  0  0  0  0  0  0  0  0  0  0
    4.2067    1.2738    0.4508 C   0  0  0  0  0  0  0  0  0  0  0  0
    3.9408    2.4666    1.0154 N   0  0  0  0  0  0  0  0  0  0  0  0
    5.3735    3.2100    1.3609 S   0  0  0  0  0  0  0  0  0  0  0  0
    6.4386    2.0494    0.8616 N   0  0  0  0  0  0  0  0  0  0  0  0
    5.7016    1.0161    0.4260 C   0  0  0  0  0  0  0  0  0  0  0  0
    6.2403   -0.2055   -0.0091 C   0  0  0  0  0  0  0  0  0  0  0  0
    5.3007   -1.1852   -0.3282 C   0  0  0  0  0  0  0  0  0  0  0  0
    3.8769   -0.9664   -0.2946 C   0  0  0  0  0  0  0  0  0  0  0  0
    2.9196   -1.9930   -0.5066 C   0  0  0  0  0  0  0  0  0  0  0  0
    3.2835   -3.2966   -0.7794 C   0  0  0  0  0  0  0  0  0  0  0  0
    1.9391   -4.3328   -0.9545 S   0  0  0  0  0  0  0  0  0  0  0  0
    0.8512   -3.0474   -0.6602 C   0  0  0  0  0  0  0  0  0  0  0  0
    1.4744   -1.8385   -0.4194 C   0  0  0  0  0  0  0  0  0  0  0  0
    0.7692   -0.6099   -0.1766 C   0  0  0  0  0  0  0  0  0  0  0  0
   -7.9744    0.8792    1.3658 H   0  0  0  0  0  0  0  0  0  0  0  0
   -7.9628   -1.3556   -0.1906 H   0  0  0  0  0  0  0  0  0  0  0  0
   -5.5748   -1.8622   -0.7283 H   0  0  0  0  0  0  0  0  0  0  0  0
   -5.3842    1.5815    1.6825 H   0  0  0  0  0  0  0  0  0  0  0  0
   -3.3567   -2.4132    0.2542 H   0  0  0  0  0  0  0  0  0  0  0  0
   -3.2108    1.8546    0.2689 H   0  0  0  0  0  0  0  0  0  0  0  0
   -1.8344    3.5804   -0.0724 H   0  0  0  0  0  0  0  0  0  0  0  0
    2.5813    3.1577   -0.8265 H   0  0  0  0  0  0  0  0  0  0  0  0
    7.3073   -0.3894   -0.0291 H   0  0  0  0  0  0  0  0  0  0  0  0
    5.6980   -2.1626   -0.5965 H   0  0  0  0  0  0  0  0  0  0  0  0
    4.2650   -3.7321   -0.8915 H   0  0  0  0  0  0  0  0  0  0  0  0
   -0.1991   -3.2888   -0.6995 H   0  0  0  0  0  0  0  0  0  0  0  0
  1  2  2  0
  2  3  1  0
  3  4  1  0
  4  5  2  0
  4  6  1  0
  6  7  2  0
  7  8  1  0
  8  9  2  0
  9 10  1  0
 10 11  2  0
 10 12  1  0
 12 13  2  0
 13 14  1  0
 14 15  1  0
 15 16  2  0
 16 17  1  0
 17 18  1  0
 18 19  1  0
 19 20  2  0
 20 21  1  0
 21 22  1  0
 22 23  2  0
 23 24  1  0
 24 25  2  0
 25 26  1  0
 26 27  1  0
 27 28  2  0
 28 29  1  0
 29 30  1  0
 30 31  2  0
 31 32  1  0
  5  1  1  0
 11  6  1  0
 16 12  1  0
 32 17  2  0
 32  9  1  0
 26 18  2  0
 31 27  1  0
 23 19  1  0
  1 33  1  0
  2 34  1  0
  3 35  1  0
  5 36  1  0
  7 37  1  0
 11 38  1  0
 13 39  1  0
 15 40  1  0
 24 41  1  0
 25 42  1  0
 28 43  1  0
 30 44  1  0
M  END
