
     RDKit          3D

 41 47  0  0  0  0  0  0  0  0999 V2000
   -7.4607    0.9808   -1.2146 C   0  0  0  0  0  0  0  0  0  0  0  0
   -7.6601    0.1924   -0.1062 C   0  0  0  0  0  0  0  0  0  0  0  0
   -6.4314   -0.1753    0.3744 N   0  0  0  0  0  0  0  0  0  0  0  0
   -5.4287    0.3628   -0.4061 C   0  0  0  0  0  0  0  0  0  0  0  0
   -6.0621    1.0883   -1.4035 C   0  0  0  0  0  0  0  0  0  0  0  0
   -4.0121    0.1542   -0.1532 C   0  0  0  0  0  0  0  0  0  0  0  0
   -3.1307    0.7426   -1.0006 N   0  0  0  0  0  0  0  0  0  0  0  0
   -1.7781    0.5853   -0.8178 C   0  0  0  0  0  0  0  0  0  0  0  0
   -1.0738   -0.1369    0.1733 C   0  0  0  0  0  0  0  0  0  0  0  0
    0.4124   -0.2126    0.2383 C   0  0  0  0  0  0  0  0  0  0  0  0
    1.3236    0.6316   -0.9671 S   0  0  0  0  0  0  0  0  0  0  0  0
    2.8935    0.1878   -0.3905 C   0  0  0  0  0  0  0  0  0  0  0  0
    4.0810    0.6941   -1.1317 C   0  0  0  0  0  0  0  0  0  0  0  0
    3.9986    1.5168   -2.2812 C   0  0  0  0  0  0  0  0  0  0  0  0
    5.0007    2.0531   -3.0593 N   0  0  0  0  0  0  0  0  0  0  0  0
    6.3005    1.8132   -2.7589 C   0  0  0  0  0  0  0  0  0  0  0  0
    6.5790    1.0093   -1.6412 C   0  0  0  0  0  0  0  0  0  0  0  0
    7.8069    0.6775   -1.2103 N   0  0  0  0  0  0  0  0  0  0  0  0
    7.5884   -0.2724    0.1256 S   0  0  0  0  0  0  0  0  0  0  0  0
    5.9433   -0.2988    0.2078 N   0  0  0  0  0  0  0  0  0  0  0  0
    5.4453    0.4322   -0.8022 C   0  0  0  0  0  0  0  0  0  0  0  0
    2.7169   -0.6086    0.7281 C   0  0  0  0  0  0  0  0  0  0  0  0
    3.7440   -1.1411    1.4439 N   0  0  0  0  0  0  0  0  0  0  0  0
    3.3319   -1.8835    2.4938 C   0  0  0  0  0  0  0  0  0  0  0  0
    2.0029   -2.0981    2.8309 C   0  0  0  0  0  0  0  0  0  0  0  0
    0.9500   -1.5923    2.1527 N   0  0  0  0  0  0  0  0  0  0  0  0
    1.3159   -0.8348    1.0833 C   0  0  0  0  0  0  0  0  0  0  0  0
   -1.9824   -0.7658    1.0782 C   0  0  0  0  0  0  0  0  0  0  0  0
   -1.7025   -1.5327    2.1433 N   0  0  0  0  0  0  0  0  0  0  0  0
   -3.1084   -2.0094    2.8488 S   0  0  0  0  0  0  0  0  0  0  0  0
   -4.2057   -1.2770    1.8543 N   0  0  0  0  0  0  0  0  0  0  0  0
   -3.4960   -0.6188    0.9140 C   0  0  0  0  0  0  0  0  0  0  0  0
   -8.2351    1.4305   -1.8223 H   0  0  0  0  0  0  0  0  0  0  0  0
   -8.5668   -0.1387    0.3819 H   0  0  0  0  0  0  0  0  0  0  0  0
   -6.2673   -0.7595    1.1870 H   0  0  0  0  0  0  0  0  0  0  0  0
   -5.5561    1.6387   -2.1873 H   0  0  0  0  0  0  0  0  0  0  0  0
   -1.2359    1.1283   -1.5925 H   0  0  0  0  0  0  0  0  0  0  0  0
    3.0261    1.8159   -2.6735 H   0  0  0  0  0  0  0  0  0  0  0  0
    7.0598    2.2512   -3.3928 H   0  0  0  0  0  0  0  0  0  0  0  0
    4.1288   -2.3227    3.0860 H   0  0  0  0  0  0  0  0  0  0  0  0
    1.7444   -2.7079    3.6911 H   0  0  0  0  0  0  0  0  0  0  0  0
  1  2  2  0
  2  3  1  0
  3  4  1  0
  4  5  2  0
  4  6  1  0
  6  7  2  0
  7  8  1  0
  8  9  2  0
  9 10  1  0
 10 11  1  0
 11 12  1  0
 12 13  1  0
 13 14  2  0
 14 15  1  0
 15 16  2  0
 16 17  1  0
 17 18  2  0
 18 19  1  0
 19 20  1  0
 20 21  2  0
 12 22  2  0
 22 23  1  0
 23 24  2  0
 24 25  1  0
 25 26  2  0
 26 27  1  0
  9 28  1  0
 28 29  2  0
 29 30  1  0
 30 31  1  0
 31 32  2  0
  5  1  1  0
 32  6  1  0
 27 10  2  0
 32 28  1  0
 21 13  1  0
 27 22  1  0
 21 17  1  0
  1 33  1  0
  2 34  1  0
  3 35  1  0
  5 36  1  0
  8 37  1  0
 14 38  1  0
 16 39  1  0
 24 40  1  0
 25 41  1  0
M  END
