
     RDKit          3D

 37 41  0  0  0  0  0  0  0  0999 V2000
    6.8123    1.6138   -1.1553 C   0  0  0  0  0  0  0  0  0  0  0  0
    7.0939    0.9728    0.0269 C   0  0  0  0  0  0  0  0  0  0  0  0
    5.9134    0.5072    0.5424 N   0  0  0  0  0  0  0  0  0  0  0  0
    4.8624    0.8344   -0.2859 C   0  0  0  0  0  0  0  0  0  0  0  0
    5.4123    1.5277   -1.3530 C   0  0  0  0  0  0  0  0  0  0  0  0
    3.4928    0.4839   -0.0171 C   0  0  0  0  0  0  0  0  0  0  0  0
    2.2084    0.9114   -1.0769 S   0  0  0  0  0  0  0  0  0  0  0  0
    0.9720    0.1766   -0.1083 C   0  0  0  0  0  0  0  0  0  0  0  0
   -0.4184    0.2185   -0.5255 C   0  0  0  0  0  0  0  0  0  0  0  0
   -0.9374    0.8023   -1.6678 C   0  0  0  0  0  0  0  0  0  0  0  0
   -2.3534    0.6641   -1.7786 C   0  0  0  0  0  0  0  0  0  0  0  0
   -2.9207   -0.0259   -0.7213 C   0  0  0  0  0  0  0  0  0  0  0  0
   -1.6871   -0.4857    0.3829 S   0  0  0  0  0  0  0  0  0  0  0  0
   -4.3466   -0.3666   -0.4832 C   0  0  0  0  0  0  0  0  0  0  0  0
   -4.7791   -1.0808    0.6489 C   0  0  0  0  0  0  0  0  0  0  0  0
   -6.1306   -1.3884    0.8479 C   0  0  0  0  0  0  0  0  0  0  0  0
   -7.0831   -0.9883   -0.0822 C   0  0  0  0  0  0  0  0  0  0  0  0
   -6.6846   -0.2810   -1.2105 C   0  0  0  0  0  0  0  0  0  0  0  0
   -5.3328    0.0252   -1.4071 C   0  0  0  0  0  0  0  0  0  0  0  0
    1.5988   -0.3595    0.9771 C   0  0  0  0  0  0  0  0  0  0  0  0
    1.1688   -1.0852    2.1296 C   0  0  0  0  0  0  0  0  0  0  0  0
    2.2107   -1.4339    2.9927 C   0  0  0  0  0  0  0  0  0  0  0  0
    3.8115   -0.9295    2.5141 S   0  0  0  0  0  0  0  0  0  0  0  0
    2.9922   -0.2068    1.0574 C   0  0  0  0  0  0  0  0  0  0  0  0
    7.5327    2.0918   -1.8064 H   0  0  0  0  0  0  0  0  0  0  0  0
    8.0284    0.8070    0.5461 H   0  0  0  0  0  0  0  0  0  0  0  0
    5.8208   -0.0058    1.4096 H   0  0  0  0  0  0  0  0  0  0  0  0
    4.8667    1.9349   -2.1948 H   0  0  0  0  0  0  0  0  0  0  0  0
   -0.3394    1.3157   -2.4111 H   0  0  0  0  0  0  0  0  0  0  0  0
   -2.9149    1.0643   -2.6128 H   0  0  0  0  0  0  0  0  0  0  0  0
   -4.0764   -1.4173    1.4066 H   0  0  0  0  0  0  0  0  0  0  0  0
   -6.4339   -1.9419    1.7330 H   0  0  0  0  0  0  0  0  0  0  0  0
   -8.1320   -1.2268    0.0720 H   0  0  0  0  0  0  0  0  0  0  0  0
   -7.4234    0.0354   -1.9425 H   0  0  0  0  0  0  0  0  0  0  0  0
   -5.0712    0.5795   -2.3040 H   0  0  0  0  0  0  0  0  0  0  0  0
    0.1476   -1.3612    2.3554 H   0  0  0  0  0  0  0  0  0  0  0  0
    2.1191   -1.9819    3.9209 H   0  0  0  0  0  0  0  0  0  0  0  0
  1  2  2  0
  2  3  1  0
  3  4  1  0
  4  5  2  0
  4  6  1  0
  6  7  1  0
  7  8  1  0
  8  9  1  0
  9 10  2  0
 10 11  1  0
 11 12  2  0
 12 13  1  0
 12 14  1  0
 14 15  2  0
 15 16  1  0
 16 17  2  0
 17 18  1  0
 18 19  2  0
  8 20  2  0
 20 21  1  0
 21 22  2  0
 22 23  1  0
 23 24  1  0
  5  1  1  0
 24  6  2  0
 13  9  1  0
 19 14  1  0
 24 20  1  0
  1 25  1  0
  2 26  1  0
  3 27  1  0
  5 28  1  0
 10 29  1  0
 11 30  1  0
 15 31  1  0
 16 32  1  0
 17 33  1  0
 18 34  1  0
 19 35  1  0
 21 36  1  0
 22 37  1  0
M  END
