
     RDKit          3D

 33 38  0  0  0  0  0  0  0  0999 V2000
    4.8707   -0.6184   -0.4202 C   0  0  0  0  0  0  0  0  0  0  0  0
    5.4381    0.5093   -0.9866 C   0  0  0  0  0  0  0  0  0  0  0  0
    4.3021    1.7931   -1.1851 S   0  0  0  0  0  0  0  0  0  0  0  0
    3.0495    0.8477   -0.5430 C   0  0  0  0  0  0  0  0  0  0  0  0
    3.5037   -0.3906   -0.1822 C   0  0  0  0  0  0  0  0  0  0  0  0
    2.5490   -1.2494    0.4421 C   0  0  0  0  0  0  0  0  0  0  0  0
    2.8887   -2.4692    0.9645 C   0  0  0  0  0  0  0  0  0  0  0  0
    1.5338   -3.1549    1.7815 S   0  0  0  0  0  0  0  0  0  0  0  0
    0.5336   -1.7924    1.4214 C   0  0  0  0  0  0  0  0  0  0  0  0
    1.1916   -0.8970    0.6189 C   0  0  0  0  0  0  0  0  0  0  0  0
    0.6283    0.3462    0.1330 C   0  0  0  0  0  0  0  0  0  0  0  0
    1.5572    1.2402   -0.3403 C   0  0  0  0  0  0  0  0  0  0  0  0
    0.8810    2.7598   -0.5977 S   0  0  0  0  0  0  0  0  0  0  0  0
   -0.6898    2.2049   -0.1266 C   0  0  0  0  0  0  0  0  0  0  0  0
   -1.8289    3.0199   -0.0008 C   0  0  0  0  0  0  0  0  0  0  0  0
   -3.0562    2.4315    0.2870 C   0  0  0  0  0  0  0  0  0  0  0  0
   -3.1864    1.0478    0.3438 C   0  0  0  0  0  0  0  0  0  0  0  0
   -4.4571    0.4733    0.5100 C   0  0  0  0  0  0  0  0  0  0  0  0
   -4.6310   -0.9084    0.4590 C   0  0  0  0  0  0  0  0  0  0  0  0
   -3.5401   -1.7304    0.2122 C   0  0  0  0  0  0  0  0  0  0  0  0
   -2.2672   -1.1741    0.0635 C   0  0  0  0  0  0  0  0  0  0  0  0
   -2.0445    0.2165    0.1879 C   0  0  0  0  0  0  0  0  0  0  0  0
   -0.7304    0.8128    0.0850 C   0  0  0  0  0  0  0  0  0  0  0  0
    5.4302   -1.5184   -0.2021 H   0  0  0  0  0  0  0  0  0  0  0  0
    6.4667    0.6555   -1.2869 H   0  0  0  0  0  0  0  0  0  0  0  0
    3.8351   -2.9911    0.9621 H   0  0  0  0  0  0  0  0  0  0  0  0
   -0.4552   -1.7520    1.8527 H   0  0  0  0  0  0  0  0  0  0  0  0
   -1.7562    4.0963   -0.1322 H   0  0  0  0  0  0  0  0  0  0  0  0
   -3.9274    3.0750    0.3939 H   0  0  0  0  0  0  0  0  0  0  0  0
   -5.3328    1.1030    0.6547 H   0  0  0  0  0  0  0  0  0  0  0  0
   -5.6228   -1.3371    0.5757 H   0  0  0  0  0  0  0  0  0  0  0  0
   -3.6767   -2.8049    0.1195 H   0  0  0  0  0  0  0  0  0  0  0  0
   -1.4562   -1.8444   -0.2048 H   0  0  0  0  0  0  0  0  0  0  0  0
  1  2  2  0
  2  3  1  0
  3  4  1  0
  4  5  2  0
  5  6  1  0
  6  7  2  0
  7  8  1  0
  8  9  1  0
  9 10  2  0
 10 11  1  0
 11 12  2  0
 12 13  1  0
 13 14  1  0
 14 15  2  0
 15 16  1  0
 16 17  2  0
 17 18  1  0
 18 19  2  0
 19 20  1  0
 20 21  2  0
 21 22  1  0
 22 23  2  0
  1  5  1  0
 10  6  1  0
 11 23  1  0
 12  4  1  0
 23 14  1  0
 22 17  1  0
  1 24  1  0
  2 25  1  0
  7 26  1  0
  9 27  1  0
 15 28  1  0
 16 29  1  0
 18 30  1  0
 19 31  1  0
 20 32  1  0
 21 33  1  0
M  END
