
     RDKit          3D

 43 49  0  0  0  0  0  0  0  0999 V2000
    2.9274   -1.6234    3.1851 Si  0  0  0  0  0  4  0  0  0  0  0  0
    3.6334   -0.8498    1.6518 C   0  0  0  0  0  0  0  0  0  0  0  0
    2.6714   -0.3874    0.8235 C   0  0  0  0  0  0  0  0  0  0  0  0
    2.9229    0.1210   -0.5303 C   0  0  0  0  0  0  0  0  0  0  0  0
    1.8559    0.2739   -1.3448 C   0  0  0  0  0  0  0  0  0  0  0  0
    0.4784    0.0928   -0.8736 C   0  0  0  0  0  0  0  0  0  0  0  0
   -0.6318    0.2687   -1.6976 C   0  0  0  0  0  0  0  0  0  0  0  0
   -0.6158    0.5155   -3.0506 C   0  0  0  0  0  0  0  0  0  0  0  0
   -1.9184    0.6527   -3.4558 N   0  0  0  0  0  0  0  0  0  0  0  0
   -2.7622    0.5150   -2.3744 C   0  0  0  0  0  0  0  0  0  0  0  0
   -1.9986    0.2321   -1.2637 C   0  0  0  0  0  0  0  0  0  0  0  0
   -2.4327    0.0535    0.0901 C   0  0  0  0  0  0  0  0  0  0  0  0
   -3.7818    0.0122    0.6364 C   0  0  0  0  0  0  0  0  0  0  0  0
   -4.9960   -0.0520   -0.0702 C   0  0  0  0  0  0  0  0  0  0  0  0
   -6.2353   -0.0717    0.4788 N   0  0  0  0  0  0  0  0  0  0  0  0
   -6.2916   -0.0411    1.8176 C   0  0  0  0  0  0  0  0  0  0  0  0
   -5.1681   -0.0062    2.6159 C   0  0  0  0  0  0  0  0  0  0  0  0
   -3.9149    0.0105    2.0320 C   0  0  0  0  0  0  0  0  0  0  0  0
   -2.8646    0.0326    2.8523 N   0  0  0  0  0  0  0  0  0  0  0  0
   -1.6208   -0.0031    2.3101 C   0  0  0  0  0  0  0  0  0  0  0  0
   -1.2854   -0.0615    0.9551 C   0  0  0  0  0  0  0  0  0  0  0  0
    0.1075   -0.1628    0.4816 C   0  0  0  0  0  0  0  0  0  0  0  0
    1.2786   -0.5689    1.3351 C   0  0  0  0  0  0  0  0  0  0  0  0
    1.2294   -1.2668    2.4918 C   0  0  0  0  0  0  0  0  0  0  0  0
    4.2021    0.4365   -1.1082 C   0  0  0  0  0  0  0  0  0  0  0  0
    4.6633    0.0077   -2.2726 N   0  0  0  0  0  0  0  0  0  0  0  0
    5.9114    0.5363   -2.5302 C   0  0  0  0  0  0  0  0  0  0  0  0
    6.4007    1.3964   -1.5757 C   0  0  0  0  0  0  0  0  0  0  0  0
    5.2642    1.5587   -0.3083 S   0  0  0  0  0  0  0  0  0  0  0  0
    3.2065   -3.0760    3.2763 H   0  0  0  0  0  0  0  0  0  0  0  0
    3.2105   -0.8327    4.4064 H   0  0  0  0  0  0  0  0  0  0  0  0
    4.6961   -0.8847    1.4716 H   0  0  0  0  0  0  0  0  0  0  0  0
    1.9984    0.6117   -2.3669 H   0  0  0  0  0  0  0  0  0  0  0  0
    0.1872    0.6118   -3.7687 H   0  0  0  0  0  0  0  0  0  0  0  0
   -2.2153    0.8580   -4.4018 H   0  0  0  0  0  0  0  0  0  0  0  0
   -3.8163    0.6653   -2.5404 H   0  0  0  0  0  0  0  0  0  0  0  0
   -5.0264   -0.1339   -1.1476 H   0  0  0  0  0  0  0  0  0  0  0  0
   -7.2881   -0.0539    2.2483 H   0  0  0  0  0  0  0  0  0  0  0  0
   -5.2650    0.0052    3.6961 H   0  0  0  0  0  0  0  0  0  0  0  0
   -0.8545    0.0804    3.0749 H   0  0  0  0  0  0  0  0  0  0  0  0
    0.3731   -1.6603    3.0127 H   0  0  0  0  0  0  0  0  0  0  0  0
    6.4239    0.2603   -3.4437 H   0  0  0  0  0  0  0  0  0  0  0  0
    7.3412    1.9275   -1.5663 H   0  0  0  0  0  0  0  0  0  0  0  0
  1  2  1  0
  2  3  2  0
  3  4  1  0
  4  5  2  0
  5  6  1  0
  6  7  1  0
  7  8  2  0
  8  9  1  0
  9 10  1  0
 10 11  2  0
 11 12  1  0
 12 13  2  0
 13 14  1  0
 14 15  2  0
 15 16  1  0
 16 17  2  0
 17 18  1  0
 18 19  2  0
 19 20  1  0
 20 21  2  0
 21 22  1  0
 22 23  1  0
 23 24  2  0
  4 25  1  0
 25 26  2  0
 26 27  1  0
 27 28  2  0
 28 29  1  0
 24  1  1  0
 29 25  1  0
 23  3  1  0
 22  6  2  0
 11  7  1  0
 21 12  1  0
 18 13  1  0
  1 30  1  0
  1 31  1  0
  2 32  1  0
  5 33  1  0
  8 34  1  0
  9 35  1  0
 10 36  1  0
 14 37  1  0
 16 38  1  0
 17 39  1  0
 20 40  1  0
 24 41  1  0
 27 42  1  0
 28 43  1  0
M  END
