
     RDKit          3D

 47 53  0  0  0  0  0  0  0  0999 V2000
    2.0692    3.5454    0.3218 C   0  0  0  0  0  0  0  0  0  0  0  0
    2.7590    2.6312   -0.6463 C   0  0  0  0  0  0  0  0  0  0  0  0
    2.0697    1.4834   -0.7522 C   0  0  0  0  0  0  0  0  0  0  0  0
    2.3245    0.3412   -1.6391 C   0  0  0  0  0  0  0  0  0  0  0  0
    1.4349   -0.6832   -1.6429 C   0  0  0  0  0  0  0  0  0  0  0  0
    0.3320   -0.5914   -0.7472 C   0  0  0  0  0  0  0  0  0  0  0  0
   -0.6409   -1.5469   -0.6896 N   0  0  0  0  0  0  0  0  0  0  0  0
   -1.5532   -1.2016    0.2790 C   0  0  0  0  0  0  0  0  0  0  0  0
   -1.1015   -0.0266    0.8911 C   0  0  0  0  0  0  0  0  0  0  0  0
    0.0333    0.4100    0.1701 C   0  0  0  0  0  0  0  0  0  0  0  0
    0.9061    1.5371    0.1566 C   0  0  0  0  0  0  0  0  0  0  0  0
    0.8765    2.7384    0.7468 C   0  0  0  0  0  0  0  0  0  0  0  0
   -1.8388    0.4511    2.0148 C   0  0  0  0  0  0  0  0  0  0  0  0
   -1.5797    1.4048    2.9200 C   0  0  0  0  0  0  0  0  0  0  0  0
   -2.6819    1.4674    3.9337 C   0  0  0  0  0  0  0  0  0  0  0  0
   -3.5883    0.3570    3.4977 C   0  0  0  0  0  0  0  0  0  0  0  0
   -3.0846   -0.2352    2.4007 C   0  0  0  0  0  0  0  0  0  0  0  0
   -3.5817   -1.4316    1.6840 C   0  0  0  0  0  0  0  0  0  0  0  0
   -4.7747   -2.0834    2.0200 C   0  0  0  0  0  0  0  0  0  0  0  0
   -5.1769   -3.2218    1.3188 C   0  0  0  0  0  0  0  0  0  0  0  0
   -4.3934   -3.7181    0.2783 C   0  0  0  0  0  0  0  0  0  0  0  0
   -3.2022   -3.0790   -0.0728 C   0  0  0  0  0  0  0  0  0  0  0  0
   -2.7852   -1.9365    0.6208 C   0  0  0  0  0  0  0  0  0  0  0  0
    3.4724    0.2522   -2.5516 C   0  0  0  0  0  0  0  0  0  0  0  0
    4.6318   -0.4373   -2.1906 C   0  0  0  0  0  0  0  0  0  0  0  0
    5.7026   -0.4941   -3.0794 C   0  0  0  0  0  0  0  0  0  0  0  0
    5.5767    0.1449   -4.3030 C   0  0  0  0  0  0  0  0  0  0  0  0
    4.4739    0.8237   -4.6870 N   0  0  0  0  0  0  0  0  0  0  0  0
    3.4490    0.8639   -3.8016 C   0  0  0  0  0  0  0  0  0  0  0  0
    2.7130    3.7779    1.1751 H   0  0  0  0  0  0  0  0  0  0  0  0
    1.7594    4.4726   -0.1693 H   0  0  0  0  0  0  0  0  0  0  0  0
    3.6507    2.8943   -1.1950 H   0  0  0  0  0  0  0  0  0  0  0  0
    1.5554   -1.5486   -2.2870 H   0  0  0  0  0  0  0  0  0  0  0  0
   -0.6886   -2.3707   -1.2710 H   0  0  0  0  0  0  0  0  0  0  0  0
    0.1120    3.1217    1.3972 H   0  0  0  0  0  0  0  0  0  0  0  0
   -0.7018    2.0216    2.9735 H   0  0  0  0  0  0  0  0  0  0  0  0
   -3.1938    2.4336    3.9033 H   0  0  0  0  0  0  0  0  0  0  0  0
   -2.2977    1.2854    4.9417 H   0  0  0  0  0  0  0  0  0  0  0  0
   -4.4784    0.0712    4.0351 H   0  0  0  0  0  0  0  0  0  0  0  0
   -5.4025   -1.7172    2.8267 H   0  0  0  0  0  0  0  0  0  0  0  0
   -6.1045   -3.7220    1.5860 H   0  0  0  0  0  0  0  0  0  0  0  0
   -4.7137   -4.6040   -0.2646 H   0  0  0  0  0  0  0  0  0  0  0  0
   -2.6207   -3.4850   -0.8936 H   0  0  0  0  0  0  0  0  0  0  0  0
    4.7048   -0.9238   -1.2213 H   0  0  0  0  0  0  0  0  0  0  0  0
    6.6141   -1.0219   -2.8225 H   0  0  0  0  0  0  0  0  0  0  0  0
    6.3853    0.1283   -5.0283 H   0  0  0  0  0  0  0  0  0  0  0  0
    2.5783    1.4217   -4.1371 H   0  0  0  0  0  0  0  0  0  0  0  0
  1  2  1  0
  2  3  2  0
  3  4  1  0
  4  5  2  0
  5  6  1  0
  6  7  1  0
  7  8  1  0
  8  9  2  0
  9 10  1  0
 10 11  1  0
 11 12  2  0
  9 13  1  0
 13 14  2  0
 14 15  1  0
 15 16  1  0
 16 17  2  0
 17 18  1  0
 18 19  2  0
 19 20  1  0
 20 21  2  0
 21 22  1  0
 22 23  2  0
  4 24  1  0
 24 25  2  0
 25 26  1  0
 26 27  2  0
 27 28  1  0
 28 29  2  0
 12  1  1  0
 17 13  1  0
 23 18  1  0
 29 24  1  0
 11  3  1  0
 10  6  2  0
 23  8  1  0
  1 30  1  0
  1 31  1  0
  2 32  1  0
  5 33  1  0
  7 34  1  0
 12 35  1  0
 14 36  1  0
 15 37  1  0
 15 38  1  0
 16 39  1  0
 19 40  1  0
 20 41  1  0
 21 42  1  0
 22 43  1  0
 25 44  1  0
 26 45  1  0
 27 46  1  0
 29 47  1  0
M  END
