
     RDKit          3D

 48 55  0  0  0  0  0  0  0  0999 V2000
    3.2176   -2.8693   -1.1780 C   0  0  0  0  0  0  0  0  0  0  0  0
    3.7904   -1.5588   -0.7331 C   0  0  0  0  0  0  0  0  0  0  0  0
    2.8008   -0.7388   -0.3416 C   0  0  0  0  0  0  0  0  0  0  0  0
    2.9080    0.6126    0.2375 C   0  0  0  0  0  0  0  0  0  0  0  0
    1.7538    1.2285    0.6018 C   0  0  0  0  0  0  0  0  0  0  0  0
    0.5294    0.5374    0.3797 C   0  0  0  0  0  0  0  0  0  0  0  0
   -0.6757    1.0718    0.7435 N   0  0  0  0  0  0  0  0  0  0  0  0
   -1.7068    0.2259    0.3768 C   0  0  0  0  0  0  0  0  0  0  0  0
   -1.0658   -0.8465   -0.2585 C   0  0  0  0  0  0  0  0  0  0  0  0
   -1.9241   -1.8288   -0.8383 C   0  0  0  0  0  0  0  0  0  0  0  0
   -1.6736   -2.9144   -1.6180 C   0  0  0  0  0  0  0  0  0  0  0  0
   -2.8704   -3.5108   -1.9203 O   0  0  0  0  0  0  0  0  0  0  0  0
   -3.8575   -2.7606   -1.3409 C   0  0  0  0  0  0  0  0  0  0  0  0
   -3.3170   -1.6846   -0.6723 C   0  0  0  0  0  0  0  0  0  0  0  0
   -4.0356   -0.6734   -0.0042 C   0  0  0  0  0  0  0  0  0  0  0  0
   -5.4868   -0.6099    0.1235 C   0  0  0  0  0  0  0  0  0  0  0  0
   -6.1736    0.4285    0.7846 C   0  0  0  0  0  0  0  0  0  0  0  0
   -5.2770    1.3612    1.2847 C   0  0  0  0  0  0  0  0  0  0  0  0
   -5.6076    2.4899    1.9844 C   0  0  0  0  0  0  0  0  0  0  0  0
   -4.4691    3.1611    2.3239 O   0  0  0  0  0  0  0  0  0  0  0  0
   -3.4076    2.4490    1.8337 C   0  0  0  0  0  0  0  0  0  0  0  0
   -3.8475    1.3277    1.1740 C   0  0  0  0  0  0  0  0  0  0  0  0
   -3.1188    0.3184    0.5259 C   0  0  0  0  0  0  0  0  0  0  0  0
    0.3247   -0.7097   -0.1958 C   0  0  0  0  0  0  0  0  0  0  0  0
    1.5050   -1.4244   -0.5472 C   0  0  0  0  0  0  0  0  0  0  0  0
    1.7430   -2.6672   -0.9841 C   0  0  0  0  0  0  0  0  0  0  0  0
    4.1574    1.3062    0.4643 C   0  0  0  0  0  0  0  0  0  0  0  0
    4.5990    2.4141   -0.1540 C   0  0  0  0  0  0  0  0  0  0  0  0
    5.8831    2.7833    0.3838 C   0  0  0  0  0  0  0  0  0  0  0  0
    6.2364    1.9087    1.3365 C   0  0  0  0  0  0  0  0  0  0  0  0
    5.1670    0.8625    1.4905 C   0  0  0  0  0  0  0  0  0  0  0  0
    3.4536   -3.0695   -2.2272 H   0  0  0  0  0  0  0  0  0  0  0  0
    3.5861   -3.6894   -0.5547 H   0  0  0  0  0  0  0  0  0  0  0  0
    4.8469   -1.3415   -0.7112 H   0  0  0  0  0  0  0  0  0  0  0  0
    1.7560    2.2182    1.0482 H   0  0  0  0  0  0  0  0  0  0  0  0
   -0.7915    1.9678    1.1888 H   0  0  0  0  0  0  0  0  0  0  0  0
   -0.8145   -3.3855   -2.0620 H   0  0  0  0  0  0  0  0  0  0  0  0
   -4.8610   -3.1200   -1.5182 H   0  0  0  0  0  0  0  0  0  0  0  0
   -6.0867   -1.4069   -0.3149 H   0  0  0  0  0  0  0  0  0  0  0  0
   -7.2496    0.4686    0.8768 H   0  0  0  0  0  0  0  0  0  0  0  0
   -6.5325    2.9416    2.3139 H   0  0  0  0  0  0  0  0  0  0  0  0
   -2.4495    2.8895    2.0565 H   0  0  0  0  0  0  0  0  0  0  0  0
    1.0282   -3.4489   -1.1549 H   0  0  0  0  0  0  0  0  0  0  0  0
    4.0912    2.9590   -0.9356 H   0  0  0  0  0  0  0  0  0  0  0  0
    6.4555    3.6378    0.0555 H   0  0  0  0  0  0  0  0  0  0  0  0
    7.1495    1.9383    1.9115 H   0  0  0  0  0  0  0  0  0  0  0  0
    4.7478    0.8826    2.5015 H   0  0  0  0  0  0  0  0  0  0  0  0
    5.5695   -0.1315    1.2768 H   0  0  0  0  0  0  0  0  0  0  0  0
  1  2  1  0
  2  3  2  0
  3  4  1  0
  4  5  2  0
  5  6  1  0
  6  7  1  0
  7  8  1  0
  8  9  2  0
  9 10  1  0
 10 11  2  0
 11 12  1  0
 12 13  1  0
 13 14  2  0
 14 15  1  0
 15 16  1  0
 16 17  2  0
 17 18  1  0
 18 19  2  0
 19 20  1  0
 20 21  1  0
 21 22  2  0
 22 23  1  0
  9 24  1  0
 24 25  1  0
 25 26  2  0
  4 27  1  0
 27 28  2  0
 28 29  1  0
 29 30  2  0
 30 31  1  0
 26  1  1  0
 31 27  1  0
 25  3  1  0
 24  6  2  0
 23  8  1  0
 14 10  1  0
 23 15  2  0
 22 18  1  0
  1 32  1  0
  1 33  1  0
  2 34  1  0
  5 35  1  0
  7 36  1  0
 11 37  1  0
 13 38  1  0
 16 39  1  0
 17 40  1  0
 19 41  1  0
 21 42  1  0
 26 43  1  0
 28 44  1  0
 29 45  1  0
 30 46  1  0
 31 47  1  0
 31 48  1  0
M  END
