
     RDKit          3D

 46 53  0  0  0  0  0  0  0  0999 V2000
    2.9123   -3.5372   -0.6418 C   0  0  0  0  0  0  0  0  0  0  0  0
    3.6945   -2.2894   -0.3685 C   0  0  0  0  0  0  0  0  0  0  0  0
    2.8615   -1.2603   -0.1336 C   0  0  0  0  0  0  0  0  0  0  0  0
    3.1787    0.1724    0.0593 C   0  0  0  0  0  0  0  0  0  0  0  0
    2.1304    1.0396    0.0949 C   0  0  0  0  0  0  0  0  0  0  0  0
    0.8135    0.5047    0.0240 C   0  0  0  0  0  0  0  0  0  0  0  0
   -0.2952    1.3047    0.0202 N   0  0  0  0  0  0  0  0  0  0  0  0
   -1.4442    0.5334    0.0104 C   0  0  0  0  0  0  0  0  0  0  0  0
   -0.9794   -0.7838    0.0700 C   0  0  0  0  0  0  0  0  0  0  0  0
   -1.9685   -1.8084    0.2407 C   0  0  0  0  0  0  0  0  0  0  0  0
   -1.7257   -3.1191    0.5305 C   0  0  0  0  0  0  0  0  0  0  0  0
   -3.2098   -3.9768    0.6414 S   0  0  0  0  0  0  0  0  0  0  0  0
   -4.1304   -2.5435    0.3846 C   0  0  0  0  0  0  0  0  0  0  0  0
   -3.3403   -1.4226    0.2146 C   0  0  0  0  0  0  0  0  0  0  0  0
   -3.8770   -0.1150    0.0662 C   0  0  0  0  0  0  0  0  0  0  0  0
   -5.3008    0.2203    0.0344 C   0  0  0  0  0  0  0  0  0  0  0  0
   -5.8128    1.5295   -0.0838 C   0  0  0  0  0  0  0  0  0  0  0  0
   -4.7770    2.4452   -0.1660 C   0  0  0  0  0  0  0  0  0  0  0  0
   -4.9198    3.7998   -0.2974 C   0  0  0  0  0  0  0  0  0  0  0  0
   -3.6865    4.3794   -0.3634 O   0  0  0  0  0  0  0  0  0  0  0  0
   -2.7558    3.3797   -0.2731 C   0  0  0  0  0  0  0  0  0  0  0  0
   -3.3734    2.1601   -0.1379 C   0  0  0  0  0  0  0  0  0  0  0  0
   -2.8201    0.8743   -0.0197 C   0  0  0  0  0  0  0  0  0  0  0  0
    0.4163   -0.8212   -0.0488 C   0  0  0  0  0  0  0  0  0  0  0  0
    1.4694   -1.7661   -0.2048 C   0  0  0  0  0  0  0  0  0  0  0  0
    1.4947   -3.0601   -0.5504 C   0  0  0  0  0  0  0  0  0  0  0  0
    4.5503    0.7338    0.1981 C   0  0  0  0  0  0  0  0  0  0  0  0
    5.5035   -0.0578    0.6984 N   0  0  0  0  0  0  0  0  0  0  0  0
    6.7005    0.5101    0.8138 C   0  0  0  0  0  0  0  0  0  0  0  0
    7.0111    1.7589    0.4800 N   0  0  0  0  0  0  0  0  0  0  0  0
    5.9866    2.4542   -0.0029 C   0  0  0  0  0  0  0  0  0  0  0  0
    4.7428    2.0099   -0.1629 N   0  0  0  0  0  0  0  0  0  0  0  0
    3.1310   -3.9228   -1.6420 H   0  0  0  0  0  0  0  0  0  0  0  0
    3.1203   -4.3096    0.1042 H   0  0  0  0  0  0  0  0  0  0  0  0
    4.7714   -2.2457   -0.4177 H   0  0  0  0  0  0  0  0  0  0  0  0
    2.2735    2.1092    0.2174 H   0  0  0  0  0  0  0  0  0  0  0  0
   -0.2727    2.3112    0.0509 H   0  0  0  0  0  0  0  0  0  0  0  0
   -0.8025   -3.6377    0.7224 H   0  0  0  0  0  0  0  0  0  0  0  0
   -5.2067   -2.6277    0.4031 H   0  0  0  0  0  0  0  0  0  0  0  0
   -6.0323   -0.5834    0.1072 H   0  0  0  0  0  0  0  0  0  0  0  0
   -6.8687    1.7581   -0.1073 H   0  0  0  0  0  0  0  0  0  0  0  0
   -5.7593    4.4774   -0.3627 H   0  0  0  0  0  0  0  0  0  0  0  0
   -1.7381    3.7296   -0.3304 H   0  0  0  0  0  0  0  0  0  0  0  0
    0.6540   -3.6844   -0.7971 H   0  0  0  0  0  0  0  0  0  0  0  0
    7.4981   -0.1040    1.2181 H   0  0  0  0  0  0  0  0  0  0  0  0
    6.1825    3.4812   -0.2922 H   0  0  0  0  0  0  0  0  0  0  0  0
  1  2  1  0
  2  3  2  0
  3  4  1  0
  4  5  2  0
  5  6  1  0
  6  7  1  0
  7  8  1  0
  8  9  2  0
  9 10  1  0
 10 11  2  0
 11 12  1  0
 12 13  1  0
 13 14  2  0
 14 15  1  0
 15 16  1  0
 16 17  2  0
 17 18  1  0
 18 19  2  0
 19 20  1  0
 20 21  1  0
 21 22  2  0
 22 23  1  0
  9 24  1  0
 24 25  1  0
 25 26  2  0
  4 27  1  0
 27 28  2  0
 28 29  1  0
 29 30  2  0
 30 31  1  0
 31 32  2  0
 26  1  1  0
 32 27  1  0
 25  3  1  0
 24  6  2  0
 23  8  1  0
 14 10  1  0
 23 15  2  0
 22 18  1  0
  1 33  1  0
  1 34  1  0
  2 35  1  0
  5 36  1  0
  7 37  1  0
 11 38  1  0
 13 39  1  0
 16 40  1  0
 17 41  1  0
 19 42  1  0
 21 43  1  0
 26 44  1  0
 29 45  1  0
 31 46  1  0
M  END
