
     RDKit          3D

 45 52  0  0  0  0  0  0  0  0999 V2000
   -1.5653   -2.9799    2.5516 Si  0  0  0  0  0  4  0  0  0  0  0  0
   -2.4808   -2.0490    1.2319 C   0  0  0  0  0  0  0  0  0  0  0  0
   -1.6666   -1.2245    0.5374 C   0  0  0  0  0  0  0  0  0  0  0  0
   -2.1174   -0.3723   -0.5646 C   0  0  0  0  0  0  0  0  0  0  0  0
   -1.2009    0.3918   -1.1929 C   0  0  0  0  0  0  0  0  0  0  0  0
    0.2138    0.3849   -0.8082 C   0  0  0  0  0  0  0  0  0  0  0  0
    1.1638    1.1716   -1.4663 C   0  0  0  0  0  0  0  0  0  0  0  0
    0.9778    2.0287   -2.5257 C   0  0  0  0  0  0  0  0  0  0  0  0
    2.2036    2.5787   -2.8303 N   0  0  0  0  0  0  0  0  0  0  0  0
    3.1651    2.0842   -1.9792 C   0  0  0  0  0  0  0  0  0  0  0  0
    2.5439    1.2074   -1.1229 C   0  0  0  0  0  0  0  0  0  0  0  0
    3.1096    0.4604   -0.0863 C   0  0  0  0  0  0  0  0  0  0  0  0
    4.4470    0.4547    0.2968 C   0  0  0  0  0  0  0  0  0  0  0  0
    5.4781    1.1668   -0.2500 O   0  0  0  0  0  0  0  0  0  0  0  0
    6.6015    0.8471    0.4415 C   0  0  0  0  0  0  0  0  0  0  0  0
    6.3156   -0.0630    1.4313 C   0  0  0  0  0  0  0  0  0  0  0  0
    4.9225   -0.3209    1.3428 C   0  0  0  0  0  0  0  0  0  0  0  0
    4.0072   -1.1146    2.0192 C   0  0  0  0  0  0  0  0  0  0  0  0
    2.6962   -1.1164    1.6527 N   0  0  0  0  0  0  0  0  0  0  0  0
    2.1976   -0.3709    0.6335 C   0  0  0  0  0  0  0  0  0  0  0  0
    0.7838   -0.3979    0.2661 C   0  0  0  0  0  0  0  0  0  0  0  0
   -0.2375   -1.2547    0.9723 C   0  0  0  0  0  0  0  0  0  0  0  0
   -0.0209   -2.1055    1.9993 C   0  0  0  0  0  0  0  0  0  0  0  0
   -3.4720   -0.2505   -1.0044 C   0  0  0  0  0  0  0  0  0  0  0  0
   -3.9977   -0.8704   -2.5613 S   0  0  0  0  0  0  0  0  0  0  0  0
   -5.6467   -0.3839   -2.3337 C   0  0  0  0  0  0  0  0  0  0  0  0
   -5.7339    0.2025   -1.1275 C   0  0  0  0  0  0  0  0  0  0  0  0
   -6.8552    0.7223   -0.5586 O   0  0  0  0  0  0  0  0  0  0  0  0
   -6.3227    1.1621    0.6408 C   0  0  0  0  0  0  0  0  0  0  0  0
   -4.9505    0.9187    0.7839 C   0  0  0  0  0  0  0  0  0  0  0  0
   -4.5690    0.2759   -0.4070 C   0  0  0  0  0  0  0  0  0  0  0  0
   -1.5271   -4.4400    2.2947 H   0  0  0  0  0  0  0  0  0  0  0  0
   -1.9929   -2.5867    3.9165 H   0  0  0  0  0  0  0  0  0  0  0  0
   -3.5385   -2.2016    1.0867 H   0  0  0  0  0  0  0  0  0  0  0  0
   -1.4970    1.0512   -2.0020 H   0  0  0  0  0  0  0  0  0  0  0  0
    0.1051    2.3075   -3.0999 H   0  0  0  0  0  0  0  0  0  0  0  0
    2.3734    3.2473   -3.5709 H   0  0  0  0  0  0  0  0  0  0  0  0
    4.1933    2.4075   -2.0719 H   0  0  0  0  0  0  0  0  0  0  0  0
    7.5063    1.3410    0.1152 H   0  0  0  0  0  0  0  0  0  0  0  0
    7.0226   -0.4879    2.1295 H   0  0  0  0  0  0  0  0  0  0  0  0
    4.2722   -1.7577    2.8504 H   0  0  0  0  0  0  0  0  0  0  0  0
    0.9058   -2.3250    2.5003 H   0  0  0  0  0  0  0  0  0  0  0  0
   -6.4268   -0.5494   -3.0618 H   0  0  0  0  0  0  0  0  0  0  0  0
   -7.0466    1.6315    1.2943 H   0  0  0  0  0  0  0  0  0  0  0  0
   -4.3395    1.1788    1.6365 H   0  0  0  0  0  0  0  0  0  0  0  0
  1  2  1  0
  2  3  2  0
  3  4  1  0
  4  5  2  0
  5  6  1  0
  6  7  1  0
  7  8  2  0
  8  9  1  0
  9 10  1  0
 10 11  2  0
 11 12  1  0
 12 13  2  0
 13 14  1  0
 14 15  1  0
 15 16  2  0
 16 17  1  0
 17 18  2  0
 18 19  1  0
 19 20  2  0
 20 21  1  0
 21 22  1  0
 22 23  2  0
  4 24  1  0
 24 25  1  0
 25 26  1  0
 26 27  2  0
 27 28  1  0
 28 29  1  0
 29 30  2  0
 30 31  1  0
 23  1  1  0
 31 24  2  0
 22  3  1  0
 31 27  1  0
 21  6  2  0
 11  7  1  0
 20 12  1  0
 17 13  1  0
  1 32  1  0
  1 33  1  0
  2 34  1  0
  5 35  1  0
  8 36  1  0
  9 37  1  0
 10 38  1  0
 15 39  1  0
 16 40  1  0
 18 41  1  0
 23 42  1  0
 26 43  1  0
 29 44  1  0
 30 45  1  0
M  END
