
     RDKit          3D

 40 46  0  0  0  0  0  0  0  0999 V2000
    1.6252   -1.0513    3.2439 C   0  0  0  0  0  0  0  0  0  0  0  0
    2.5083   -0.6751    2.0909 C   0  0  0  0  0  0  0  0  0  0  0  0
    1.7569   -0.3633    1.0208 C   0  0  0  0  0  0  0  0  0  0  0  0
    2.1966    0.0721   -0.3219 C   0  0  0  0  0  0  0  0  0  0  0  0
    1.2292    0.3743   -1.2280 C   0  0  0  0  0  0  0  0  0  0  0  0
   -0.1303    0.2325   -0.8297 C   0  0  0  0  0  0  0  0  0  0  0  0
   -1.1741    0.5004   -1.6800 N   0  0  0  0  0  0  0  0  0  0  0  0
   -2.3392    0.2640   -1.0050 C   0  0  0  0  0  0  0  0  0  0  0  0
   -3.7952    0.4027   -1.4784 C   0  0  0  0  0  0  0  0  0  0  0  0
   -4.3656    0.8962   -2.9904 S   0  0  0  0  0  0  0  0  0  0  0  0
   -6.0070    0.7067   -2.4794 C   0  0  0  0  0  0  0  0  0  0  0  0
   -6.1081    0.2715   -1.1692 C   0  0  0  0  0  0  0  0  0  0  0  0
   -4.8213    0.1077   -0.6260 C   0  0  0  0  0  0  0  0  0  0  0  0
   -4.4798   -0.3265    0.6964 C   0  0  0  0  0  0  0  0  0  0  0  0
   -5.4243   -0.6326    1.5828 N   0  0  0  0  0  0  0  0  0  0  0  0
   -4.5379   -1.0758    2.9489 S   0  0  0  0  0  0  0  0  0  0  0  0
   -2.9618   -0.8696    2.3881 N   0  0  0  0  0  0  0  0  0  0  0  0
   -3.1202   -0.4553    1.1365 C   0  0  0  0  0  0  0  0  0  0  0  0
   -2.0230   -0.1532    0.2677 C   0  0  0  0  0  0  0  0  0  0  0  0
   -0.6341   -0.1814    0.4039 C   0  0  0  0  0  0  0  0  0  0  0  0
    0.3338   -0.4955    1.3952 C   0  0  0  0  0  0  0  0  0  0  0  0
    0.2488   -0.8942    2.6700 C   0  0  0  0  0  0  0  0  0  0  0  0
    3.5845    0.1985   -0.7220 C   0  0  0  0  0  0  0  0  0  0  0  0
    4.5325   -0.7529   -0.6779 C   0  0  0  0  0  0  0  0  0  0  0  0
    5.7793   -0.2158   -1.1581 C   0  0  0  0  0  0  0  0  0  0  0  0
    5.6086    1.0684   -1.5019 C   0  0  0  0  0  0  0  0  0  0  0  0
    4.1806    1.4734   -1.2633 C   0  0  0  0  0  0  0  0  0  0  0  0
    1.7771   -0.3765    4.0914 H   0  0  0  0  0  0  0  0  0  0  0  0
    1.8061   -2.0835    3.5579 H   0  0  0  0  0  0  0  0  0  0  0  0
    3.5859   -0.6584    2.1407 H   0  0  0  0  0  0  0  0  0  0  0  0
    1.4714    0.6923   -2.2369 H   0  0  0  0  0  0  0  0  0  0  0  0
   -1.1031    0.8147   -2.6387 H   0  0  0  0  0  0  0  0  0  0  0  0
   -6.8108    0.9250   -3.1694 H   0  0  0  0  0  0  0  0  0  0  0  0
   -7.0465    0.0909   -0.6592 H   0  0  0  0  0  0  0  0  0  0  0  0
   -0.6510   -1.0737    3.2329 H   0  0  0  0  0  0  0  0  0  0  0  0
    4.4038   -1.7705   -0.3401 H   0  0  0  0  0  0  0  0  0  0  0  0
    6.6983   -0.7787   -1.2205 H   0  0  0  0  0  0  0  0  0  0  0  0
    6.3732    1.7229   -1.8920 H   0  0  0  0  0  0  0  0  0  0  0  0
    3.7095    1.7840   -2.2010 H   0  0  0  0  0  0  0  0  0  0  0  0
    4.1237    2.2854   -0.5315 H   0  0  0  0  0  0  0  0  0  0  0  0
  1  2  1  0
  2  3  2  0
  3  4  1  0
  4  5  2  0
  5  6  1  0
  6  7  1  0
  7  8  1  0
  8  9  1  0
  9 10  1  0
 10 11  1  0
 11 12  2  0
 12 13  1  0
 13 14  1  0
 14 15  2  0
 15 16  1  0
 16 17  1  0
 17 18  2  0
 18 19  1  0
 19 20  1  0
 20 21  1  0
 21 22  2  0
  4 23  1  0
 23 24  2  0
 24 25  1  0
 25 26  2  0
 26 27  1  0
 22  1  1  0
 27 23  1  0
 21  3  1  0
 20  6  2  0
 19  8  2  0
 13  9  2  0
 18 14  1  0
  1 28  1  0
  1 29  1  0
  2 30  1  0
  5 31  1  0
  7 32  1  0
 11 33  1  0
 12 34  1  0
 22 35  1  0
 24 36  1  0
 25 37  1  0
 26 38  1  0
 27 39  1  0
 27 40  1  0
M  END
