
     RDKit          3D

 47 54  0  0  0  0  0  0  0  0999 V2000
    1.0471   -3.1118    2.1472 C   0  0  0  0  0  0  0  0  0  0  0  0
    2.2463   -2.2634    1.8284 C   0  0  0  0  0  0  0  0  0  0  0  0
    1.8606   -1.1476    1.1858 C   0  0  0  0  0  0  0  0  0  0  0  0
    2.6770   -0.0282    0.6702 C   0  0  0  0  0  0  0  0  0  0  0  0
    2.0363    0.9729    0.0060 C   0  0  0  0  0  0  0  0  0  0  0  0
    0.6222    0.8788   -0.1248 C   0  0  0  0  0  0  0  0  0  0  0  0
   -0.1378    1.8141   -0.7612 N   0  0  0  0  0  0  0  0  0  0  0  0
   -1.4699    1.4400   -0.7127 C   0  0  0  0  0  0  0  0  0  0  0  0
   -2.5982    2.0966   -1.2320 C   0  0  0  0  0  0  0  0  0  0  0  0
   -3.8687    1.5262   -1.0643 C   0  0  0  0  0  0  0  0  0  0  0  0
   -5.0222    2.2026   -1.5977 C   0  0  0  0  0  0  0  0  0  0  0  0
   -6.3556    1.7437   -1.5019 C   0  0  0  0  0  0  0  0  0  0  0  0
   -6.4347    0.5353   -0.8182 C   0  0  0  0  0  0  0  0  0  0  0  0
   -7.6301   -0.1045   -0.6012 C   0  0  0  0  0  0  0  0  0  0  0  0
   -7.4026   -1.5685    0.2678 S   0  0  0  0  0  0  0  0  0  0  0  0
   -5.6993   -1.3395    0.3506 C   0  0  0  0  0  0  0  0  0  0  0  0
   -5.3078   -0.1746   -0.2689 C   0  0  0  0  0  0  0  0  0  0  0  0
   -3.9622    0.2837   -0.3627 C   0  0  0  0  0  0  0  0  0  0  0  0
   -2.8114   -0.3672    0.1556 C   0  0  0  0  0  0  0  0  0  0  0  0
   -1.5465    0.2227   -0.0235 C   0  0  0  0  0  0  0  0  0  0  0  0
   -0.2192   -0.1150    0.3368 C   0  0  0  0  0  0  0  0  0  0  0  0
    0.3958   -1.1934    1.0244 C   0  0  0  0  0  0  0  0  0  0  0  0
   -0.0878   -2.3131    1.5751 C   0  0  0  0  0  0  0  0  0  0  0  0
    4.0987    0.0951    0.8153 C   0  0  0  0  0  0  0  0  0  0  0  0
    4.7955    0.2448    2.3988 S   0  0  0  0  0  0  0  0  0  0  0  0
    6.3951    0.3424    1.7938 C   0  0  0  0  0  0  0  0  0  0  0  0
    6.4151    0.2802    0.4261 C   0  0  0  0  0  0  0  0  0  0  0  0
    7.5662    0.3446   -0.2993 N   0  0  0  0  0  0  0  0  0  0  0  0
    7.2989    0.2613   -1.6315 C   0  0  0  0  0  0  0  0  0  0  0  0
    6.0219    0.1337   -2.1913 C   0  0  0  0  0  0  0  0  0  0  0  0
    4.8588    0.0736   -1.4875 N   0  0  0  0  0  0  0  0  0  0  0  0
    5.0950    0.1457   -0.1432 C   0  0  0  0  0  0  0  0  0  0  0  0
    0.9329   -3.2406    3.2275 H   0  0  0  0  0  0  0  0  0  0  0  0
    1.1204   -4.0910    1.6649 H   0  0  0  0  0  0  0  0  0  0  0  0
    3.2579   -2.5370    2.0850 H   0  0  0  0  0  0  0  0  0  0  0  0
    2.5700    1.8227   -0.4080 H   0  0  0  0  0  0  0  0  0  0  0  0
    0.2058    2.6540   -1.2044 H   0  0  0  0  0  0  0  0  0  0  0  0
   -2.4794    3.0395   -1.7589 H   0  0  0  0  0  0  0  0  0  0  0  0
   -4.8678    3.1484   -2.1213 H   0  0  0  0  0  0  0  0  0  0  0  0
   -7.1930    2.2866   -1.9190 H   0  0  0  0  0  0  0  0  0  0  0  0
   -8.6251    0.1961   -0.8989 H   0  0  0  0  0  0  0  0  0  0  0  0
   -5.0967   -2.0821    0.8528 H   0  0  0  0  0  0  0  0  0  0  0  0
   -2.8956   -1.3079    0.6853 H   0  0  0  0  0  0  0  0  0  0  0  0
   -1.1201   -2.6196    1.6037 H   0  0  0  0  0  0  0  0  0  0  0  0
    7.2362    0.4447    2.4638 H   0  0  0  0  0  0  0  0  0  0  0  0
    8.1736    0.3012   -2.2747 H   0  0  0  0  0  0  0  0  0  0  0  0
    5.9040    0.0736   -3.2698 H   0  0  0  0  0  0  0  0  0  0  0  0
  1  2  1  0
  2  3  2  0
  3  4  1  0
  4  5  2  0
  5  6  1  0
  6  7  1  0
  7  8  1  0
  8  9  2  0
  9 10  1  0
 10 11  1  0
 11 12  2  0
 12 13  1  0
 13 14  2  0
 14 15  1  0
 15 16  1  0
 16 17  2  0
 17 18  1  0
 18 19  1  0
 19 20  2  0
 20 21  1  0
 21 22  1  0
 22 23  2  0
  4 24  1  0
 24 25  1  0
 25 26  1  0
 26 27  2  0
 27 28  1  0
 28 29  2  0
 29 30  1  0
 30 31  2  0
 31 32  1  0
 23  1  1  0
 32 24  2  0
 22  3  1  0
 32 27  1  0
 21  6  2  0
 20  8  1  0
 18 10  2  0
 17 13  1  0
  1 33  1  0
  1 34  1  0
  2 35  1  0
  5 36  1  0
  7 37  1  0
  9 38  1  0
 11 39  1  0
 12 40  1  0
 14 41  1  0
 16 42  1  0
 19 43  1  0
 23 44  1  0
 26 45  1  0
 29 46  1  0
 30 47  1  0
M  END
