
     RDKit          3D

 44 50  0  0  0  0  0  0  0  0999 V2000
    0.1731   -3.1580    0.7258 C   0  0  0  0  0  0  0  0  0  0  0  0
    1.3026   -2.2000    0.9545 C   0  0  0  0  0  0  0  0  0  0  0  0
    0.8856   -0.9444    0.7202 C   0  0  0  0  0  0  0  0  0  0  0  0
    1.6713    0.2993    0.7446 C   0  0  0  0  0  0  0  0  0  0  0  0
    1.0481    1.4532    0.3932 C   0  0  0  0  0  0  0  0  0  0  0  0
   -0.3358    1.3805    0.0661 C   0  0  0  0  0  0  0  0  0  0  0  0
   -1.0474    2.4797   -0.3271 N   0  0  0  0  0  0  0  0  0  0  0  0
   -2.3411    2.0941   -0.5451 C   0  0  0  0  0  0  0  0  0  0  0  0
   -3.3277    3.0028   -1.0112 C   0  0  0  0  0  0  0  0  0  0  0  0
   -4.5730    2.5123   -1.1709 C   0  0  0  0  0  0  0  0  0  0  0  0
   -4.8684    1.1233   -0.8253 C   0  0  0  0  0  0  0  0  0  0  0  0
   -6.1044    0.5901   -0.8811 C   0  0  0  0  0  0  0  0  0  0  0  0
   -6.0991   -1.1629   -0.2440 Si  0  0  0  0  0  4  0  0  0  0  0  0
   -4.2678   -0.9995    0.0817 C   0  0  0  0  0  0  0  0  0  0  0  0
   -3.8016    0.1988   -0.3137 C   0  0  0  0  0  0  0  0  0  0  0  0
   -2.4752    0.7411   -0.2345 C   0  0  0  0  0  0  0  0  0  0  0  0
   -1.1768    0.2687    0.0649 C   0  0  0  0  0  0  0  0  0  0  0  0
   -0.5477   -0.9754    0.3619 C   0  0  0  0  0  0  0  0  0  0  0  0
   -0.9525   -2.2509    0.3213 C   0  0  0  0  0  0  0  0  0  0  0  0
    3.0661    0.3740    1.0420 C   0  0  0  0  0  0  0  0  0  0  0  0
    3.6204    0.9398    2.5902 S   0  0  0  0  0  0  0  0  0  0  0  0
    5.2870    0.7279    2.1850 C   0  0  0  0  0  0  0  0  0  0  0  0
    5.4170    0.2377    0.9148 C   0  0  0  0  0  0  0  0  0  0  0  0
    6.5827   -0.0948    0.1554 C   0  0  0  0  0  0  0  0  0  0  0  0
    6.3352   -0.5623   -1.0881 C   0  0  0  0  0  0  0  0  0  0  0  0
    4.4479   -0.6335   -1.4465 Si  0  0  0  0  0  4  0  0  0  0  0  0
    4.1584    0.0430    0.2899 C   0  0  0  0  0  0  0  0  0  0  0  0
    0.4147   -3.8631   -0.0750 H   0  0  0  0  0  0  0  0  0  0  0  0
   -0.0718   -3.7077    1.6393 H   0  0  0  0  0  0  0  0  0  0  0  0
    2.3022   -2.4974    1.2330 H   0  0  0  0  0  0  0  0  0  0  0  0
    1.5736    2.4026    0.3636 H   0  0  0  0  0  0  0  0  0  0  0  0
   -0.6805    3.4143   -0.4412 H   0  0  0  0  0  0  0  0  0  0  0  0
   -3.0917    4.0348   -1.2443 H   0  0  0  0  0  0  0  0  0  0  0  0
   -5.3775    3.1446   -1.5297 H   0  0  0  0  0  0  0  0  0  0  0  0
   -7.0142    1.0760   -1.1948 H   0  0  0  0  0  0  0  0  0  0  0  0
   -6.8881   -1.3151    1.0024 H   0  0  0  0  0  0  0  0  0  0  0  0
   -6.4003   -2.1534   -1.3059 H   0  0  0  0  0  0  0  0  0  0  0  0
   -3.7328   -1.7946    0.5628 H   0  0  0  0  0  0  0  0  0  0  0  0
   -1.9159   -2.6156    0.0173 H   0  0  0  0  0  0  0  0  0  0  0  0
    6.0560    0.9739    2.9035 H   0  0  0  0  0  0  0  0  0  0  0  0
    7.5827    0.0231    0.5565 H   0  0  0  0  0  0  0  0  0  0  0  0
    7.0486   -0.8736   -1.8336 H   0  0  0  0  0  0  0  0  0  0  0  0
    4.0191   -2.0418   -1.6389 H   0  0  0  0  0  0  0  0  0  0  0  0
    4.0989    0.3087   -2.5393 H   0  0  0  0  0  0  0  0  0  0  0  0
  1  2  1  0
  2  3  2  0
  3  4  1  0
  4  5  2  0
  5  6  1  0
  6  7  1  0
  7  8  1  0
  8  9  1  0
  9 10  2  0
 10 11  1  0
 11 12  2  0
 12 13  1  0
 13 14  1  0
 14 15  2  0
 15 16  1  0
 16 17  1  0
 17 18  1  0
 18 19  2  0
  4 20  1  0
 20 21  1  0
 21 22  1  0
 22 23  2  0
 23 24  1  0
 24 25  2  0
 25 26  1  0
 26 27  1  0
 19  1  1  0
 27 20  2  0
 18  3  1  0
 27 23  1  0
 17  6  2  0
 16  8  2  0
 15 11  1  0
  1 28  1  0
  1 29  1  0
  2 30  1  0
  5 31  1  0
  7 32  1  0
  9 33  1  0
 10 34  1  0
 12 35  1  0
 13 36  1  0
 13 37  1  0
 14 38  1  0
 19 39  1  0
 22 40  1  0
 24 41  1  0
 25 42  1  0
 26 43  1  0
 26 44  1  0
M  END
