
     RDKit          3D

 45 51  0  0  0  0  0  0  0  0999 V2000
   -3.2010   -1.8898    2.2211 C   0  0  0  0  0  0  0  0  0  0  0  0
   -1.9391   -1.4691    1.5175 C   0  0  0  0  0  0  0  0  0  0  0  0
   -2.1910   -0.4142    0.7246 C   0  0  0  0  0  0  0  0  0  0  0  0
   -1.2725    0.3382   -0.1553 C   0  0  0  0  0  0  0  0  0  0  0  0
   -1.7850    1.3768   -0.8724 C   0  0  0  0  0  0  0  0  0  0  0  0
   -3.1700    1.6659   -0.7165 C   0  0  0  0  0  0  0  0  0  0  0  0
   -3.8166    2.6764   -1.3684 N   0  0  0  0  0  0  0  0  0  0  0  0
   -5.1420    2.6711   -0.9858 C   0  0  0  0  0  0  0  0  0  0  0  0
   -5.3375    1.6436   -0.0799 C   0  0  0  0  0  0  0  0  0  0  0  0
   -4.0910    1.0165    0.0834 C   0  0  0  0  0  0  0  0  0  0  0  0
   -3.6160   -0.0745    0.8491 C   0  0  0  0  0  0  0  0  0  0  0  0
   -4.2158   -0.9092    1.7048 C   0  0  0  0  0  0  0  0  0  0  0  0
    0.1515    0.0174   -0.3008 C   0  0  0  0  0  0  0  0  0  0  0  0
    1.0355    0.5754    0.5606 C   0  0  0  0  0  0  0  0  0  0  0  0
    2.4821    0.3019    0.4824 C   0  0  0  0  0  0  0  0  0  0  0  0
    3.4405    0.8577    1.3493 C   0  0  0  0  0  0  0  0  0  0  0  0
    3.1776    1.7245    2.3855 C   0  0  0  0  0  0  0  0  0  0  0  0
    4.6108    2.1859    3.2191 S   0  0  0  0  0  0  0  0  0  0  0  0
    5.6023    1.2256    2.1981 C   0  0  0  0  0  0  0  0  0  0  0  0
    4.8546    0.5735    1.2491 C   0  0  0  0  0  0  0  0  0  0  0  0
    5.4348   -0.2693    0.3013 C   0  0  0  0  0  0  0  0  0  0  0  0
    4.4770   -0.8315   -0.5722 C   0  0  0  0  0  0  0  0  0  0  0  0
    3.0684   -0.5681   -0.4968 C   0  0  0  0  0  0  0  0  0  0  0  0
    2.1078   -1.1820   -1.4319 C   0  0  0  0  0  0  0  0  0  0  0  0
    2.2990   -2.0372   -2.4501 C   0  0  0  0  0  0  0  0  0  0  0  0
    0.9795   -2.3661   -3.0871 C   0  0  0  0  0  0  0  0  0  0  0  0
    0.0157   -1.5611   -2.2683 C   0  0  0  0  0  0  0  0  0  0  0  0
    0.6813   -0.8832   -1.3190 C   0  0  0  0  0  0  0  0  0  0  0  0
   -3.0910   -1.8068    3.3064 H   0  0  0  0  0  0  0  0  0  0  0  0
   -3.4747   -2.9151    1.9554 H   0  0  0  0  0  0  0  0  0  0  0  0
   -0.9835   -1.9558    1.6413 H   0  0  0  0  0  0  0  0  0  0  0  0
   -1.1666    1.9666   -1.5413 H   0  0  0  0  0  0  0  0  0  0  0  0
   -3.3993    3.3241   -2.0235 H   0  0  0  0  0  0  0  0  0  0  0  0
   -5.8300    3.3999   -1.3925 H   0  0  0  0  0  0  0  0  0  0  0  0
   -6.2736    1.3886    0.3979 H   0  0  0  0  0  0  0  0  0  0  0  0
   -5.2571   -0.8923    1.9843 H   0  0  0  0  0  0  0  0  0  0  0  0
    0.6813    1.2442    1.3372 H   0  0  0  0  0  0  0  0  0  0  0  0
    2.2332    2.1279    2.7210 H   0  0  0  0  0  0  0  0  0  0  0  0
    6.6716    1.1983    2.3567 H   0  0  0  0  0  0  0  0  0  0  0  0
    6.4923   -0.4853    0.2224 H   0  0  0  0  0  0  0  0  0  0  0  0
    4.8465   -1.5047   -1.3449 H   0  0  0  0  0  0  0  0  0  0  0  0
    3.2393   -2.4469   -2.7828 H   0  0  0  0  0  0  0  0  0  0  0  0
    0.9605   -2.0566   -4.1361 H   0  0  0  0  0  0  0  0  0  0  0  0
    0.7624   -3.4357   -3.0133 H   0  0  0  0  0  0  0  0  0  0  0  0
   -1.0520   -1.5453   -2.4293 H   0  0  0  0  0  0  0  0  0  0  0  0
  1  2  1  0
  2  3  2  0
  3  4  1  0
  4  5  2  0
  5  6  1  0
  6  7  1  0
  7  8  1  0
  8  9  2  0
  9 10  1  0
 10 11  1  0
 11 12  2  0
  4 13  1  0
 13 14  2  0
 14 15  1  0
 15 16  1  0
 16 17  2  0
 17 18  1  0
 18 19  1  0
 19 20  2  0
 20 21  1  0
 21 22  2  0
 22 23  1  0
 23 24  1  0
 24 25  2  0
 25 26  1  0
 26 27  1  0
 27 28  2  0
 12  1  1  0
 28 13  1  0
 11  3  1  0
 23 15  2  0
 28 24  1  0
 10  6  2  0
 20 16  1  0
  1 29  1  0
  1 30  1  0
  2 31  1  0
  5 32  1  0
  7 33  1  0
  8 34  1  0
  9 35  1  0
 12 36  1  0
 14 37  1  0
 17 38  1  0
 19 39  1  0
 21 40  1  0
 22 41  1  0
 25 42  1  0
 26 43  1  0
 26 44  1  0
 27 45  1  0
M  END
