
     RDKit          3D

 47 54  0  0  0  0  0  0  0  0999 V2000
    1.8319   -3.6794    0.0222 C   0  0  0  0  0  0  0  0  0  0  0  0
    2.7221   -2.4894    0.1826 C   0  0  0  0  0  0  0  0  0  0  0  0
    1.9873   -1.3645    0.1931 C   0  0  0  0  0  0  0  0  0  0  0  0
    2.4484    0.0106    0.3240 C   0  0  0  0  0  0  0  0  0  0  0  0
    1.5067    0.9801    0.3039 C   0  0  0  0  0  0  0  0  0  0  0  0
    0.0764    0.6762    0.1373 C   0  0  0  0  0  0  0  0  0  0  0  0
   -0.9040    1.6680    0.1001 C   0  0  0  0  0  0  0  0  0  0  0  0
   -0.7310    3.0286    0.1985 C   0  0  0  0  0  0  0  0  0  0  0  0
   -1.9752    3.6079    0.1091 N   0  0  0  0  0  0  0  0  0  0  0  0
   -2.9379    2.6346   -0.0454 C   0  0  0  0  0  0  0  0  0  0  0  0
   -2.2988    1.4169   -0.0556 C   0  0  0  0  0  0  0  0  0  0  0  0
   -2.8727    0.1254   -0.1934 C   0  0  0  0  0  0  0  0  0  0  0  0
   -4.2328   -0.2004   -0.3498 C   0  0  0  0  0  0  0  0  0  0  0  0
   -5.4542    0.6629   -0.4175 C   0  0  0  0  0  0  0  0  0  0  0  0
   -6.5410   -0.3721   -0.5908 C   0  0  0  0  0  0  0  0  0  0  0  0
   -6.0580   -1.6233   -0.6212 C   0  0  0  0  0  0  0  0  0  0  0  0
   -4.6192   -1.5294   -0.4718 C   0  0  0  0  0  0  0  0  0  0  0  0
   -3.6553   -2.4993   -0.4367 C   0  0  0  0  0  0  0  0  0  0  0  0
   -2.3370   -2.2164   -0.2875 N   0  0  0  0  0  0  0  0  0  0  0  0
   -1.8967   -0.9346   -0.1626 C   0  0  0  0  0  0  0  0  0  0  0  0
   -0.4807   -0.6482   -0.0029 C   0  0  0  0  0  0  0  0  0  0  0  0
    0.5683   -1.7126    0.0316 C   0  0  0  0  0  0  0  0  0  0  0  0
    0.4765   -3.0512   -0.0662 C   0  0  0  0  0  0  0  0  0  0  0  0
    3.8580    0.3921    0.5108 C   0  0  0  0  0  0  0  0  0  0  0  0
    4.5906   -0.1992    1.5120 N   0  0  0  0  0  0  0  0  0  0  0  0
    5.9054    0.1192    1.7181 C   0  0  0  0  0  0  0  0  0  0  0  0
    6.6745    1.0263    0.9983 C   0  0  0  0  0  0  0  0  0  0  0  0
    5.9698    1.6539   -0.0456 C   0  0  0  0  0  0  0  0  0  0  0  0
    6.4842    2.5645   -0.8876 N   0  0  0  0  0  0  0  0  0  0  0  0
    5.2649    2.9813   -1.9328 S   0  0  0  0  0  0  0  0  0  0  0  0
    4.0280    2.0418   -1.3556 N   0  0  0  0  0  0  0  0  0  0  0  0
    4.5190    1.3422   -0.3145 C   0  0  0  0  0  0  0  0  0  0  0  0
    1.9029   -4.3464    0.8863 H   0  0  0  0  0  0  0  0  0  0  0  0
    2.0712   -4.2319   -0.8910 H   0  0  0  0  0  0  0  0  0  0  0  0
    3.7947   -2.5517    0.2843 H   0  0  0  0  0  0  0  0  0  0  0  0
    1.7823    2.0225    0.4181 H   0  0  0  0  0  0  0  0  0  0  0  0
    0.1463    3.6487    0.3205 H   0  0  0  0  0  0  0  0  0  0  0  0
   -2.1562    4.6029    0.1493 H   0  0  0  0  0  0  0  0  0  0  0  0
   -3.9740    2.9252   -0.1321 H   0  0  0  0  0  0  0  0  0  0  0  0
   -5.6066    1.2200    0.5112 H   0  0  0  0  0  0  0  0  0  0  0  0
   -5.4278    1.3324   -1.2819 H   0  0  0  0  0  0  0  0  0  0  0  0
   -7.5876   -0.1166   -0.6791 H   0  0  0  0  0  0  0  0  0  0  0  0
   -6.6121   -2.5408   -0.7341 H   0  0  0  0  0  0  0  0  0  0  0  0
   -3.8965   -3.5527   -0.5271 H   0  0  0  0  0  0  0  0  0  0  0  0
   -0.4247   -3.6293   -0.1925 H   0  0  0  0  0  0  0  0  0  0  0  0
    6.3575   -0.4238    2.5484 H   0  0  0  0  0  0  0  0  0  0  0  0
    7.7130    1.2291    1.2157 H   0  0  0  0  0  0  0  0  0  0  0  0
  1  2  1  0
  2  3  2  0
  3  4  1  0
  4  5  2  0
  5  6  1  0
  6  7  1  0
  7  8  2  0
  8  9  1  0
  9 10  1  0
 10 11  2  0
 11 12  1  0
 12 13  2  0
 13 14  1  0
 14 15  1  0
 15 16  2  0
 16 17  1  0
 17 18  2  0
 18 19  1  0
 19 20  2  0
 20 21  1  0
 21 22  1  0
 22 23  2  0
  4 24  1  0
 24 25  2  0
 25 26  1  0
 26 27  2  0
 27 28  1  0
 28 29  2  0
 29 30  1  0
 30 31  1  0
 31 32  2  0
 23  1  1  0
 32 24  1  0
 22  3  1  0
 32 28  1  0
 21  6  2  0
 11  7  1  0
 20 12  1  0
 17 13  1  0
  1 33  1  0
  1 34  1  0
  2 35  1  0
  5 36  1  0
  8 37  1  0
  9 38  1  0
 10 39  1  0
 14 40  1  0
 14 41  1  0
 15 42  1  0
 16 43  1  0
 18 44  1  0
 23 45  1  0
 26 46  1  0
 27 47  1  0
M  END
