
     RDKit          3D

 48 55  0  0  0  0  0  0  0  0999 V2000
   -2.6436   -3.2399    1.0236 C   0  0  0  0  0  0  0  0  0  0  0  0
   -3.4315   -1.9704    1.0706 C   0  0  0  0  0  0  0  0  0  0  0  0
   -2.6221   -0.9210    0.8513 C   0  0  0  0  0  0  0  0  0  0  0  0
   -2.9585    0.4815    0.6850 C   0  0  0  0  0  0  0  0  0  0  0  0
   -1.9746    1.2616    0.1748 C   0  0  0  0  0  0  0  0  0  0  0  0
   -0.5831    0.7944   -0.1609 C   0  0  0  0  0  0  0  0  0  0  0  0
    0.3246    1.6316   -0.8580 C   0  0  0  0  0  0  0  0  0  0  0  0
   -0.1018    2.8396   -1.4798 C   0  0  0  0  0  0  0  0  0  0  0  0
    0.7737    3.7217   -2.1025 C   0  0  0  0  0  0  0  0  0  0  0  0
    2.1162    3.4291   -2.1023 C   0  0  0  0  0  0  0  0  0  0  0  0
    2.5550    2.2328   -1.5299 C   0  0  0  0  0  0  0  0  0  0  0  0
    1.6982    1.2550   -0.9561 C   0  0  0  0  0  0  0  0  0  0  0  0
    2.1787   -0.0107   -0.4073 C   0  0  0  0  0  0  0  0  0  0  0  0
    3.5024   -0.5948   -0.5908 C   0  0  0  0  0  0  0  0  0  0  0  0
    4.8701   -0.2424   -1.9282 Si  0  0  0  0  0  4  0  0  0  0  0  0
    5.9465   -1.5841   -1.2125 C   0  0  0  0  0  0  0  0  0  0  0  0
    5.3755   -2.2071   -0.1714 C   0  0  0  0  0  0  0  0  0  0  0  0
    4.0333   -1.7081    0.1385 C   0  0  0  0  0  0  0  0  0  0  0  0
    3.2121   -2.2748    1.1200 C   0  0  0  0  0  0  0  0  0  0  0  0
    3.5413   -3.2584    1.9750 N   0  0  0  0  0  0  0  0  0  0  0  0
    2.2222   -3.5023    2.9399 S   0  0  0  0  0  0  0  0  0  0  0  0
    1.1736   -2.4111    2.2834 N   0  0  0  0  0  0  0  0  0  0  0  0
    1.7937   -1.7990    1.2551 C   0  0  0  0  0  0  0  0  0  0  0  0
    1.2433   -0.7626    0.3848 C   0  0  0  0  0  0  0  0  0  0  0  0
   -0.1476   -0.4531    0.3510 C   0  0  0  0  0  0  0  0  0  0  0  0
   -1.2479   -1.3965    0.6905 C   0  0  0  0  0  0  0  0  0  0  0  0
   -1.2671   -2.7420    0.7125 C   0  0  0  0  0  0  0  0  0  0  0  0
   -4.2616    1.1069    1.0442 C   0  0  0  0  0  0  0  0  0  0  0  0
   -4.5910    2.2580    0.4430 N   0  0  0  0  0  0  0  0  0  0  0  0
   -5.7533    2.7768    0.8286 C   0  0  0  0  0  0  0  0  0  0  0  0
   -6.5799    2.2624    1.7333 N   0  0  0  0  0  0  0  0  0  0  0  0
   -6.1492    1.1225    2.2642 C   0  0  0  0  0  0  0  0  0  0  0  0
   -5.0145    0.4981    1.9654 N   0  0  0  0  0  0  0  0  0  0  0  0
   -3.0096   -3.8985    0.2306 H   0  0  0  0  0  0  0  0  0  0  0  0
   -2.6711   -3.7654    1.9825 H   0  0  0  0  0  0  0  0  0  0  0  0
   -4.5019   -1.9392    1.2023 H   0  0  0  0  0  0  0  0  0  0  0  0
   -2.1591    2.3262    0.0792 H   0  0  0  0  0  0  0  0  0  0  0  0
   -1.1524    3.1185   -1.5060 H   0  0  0  0  0  0  0  0  0  0  0  0
    0.4036    4.6379   -2.5536 H   0  0  0  0  0  0  0  0  0  0  0  0
    2.8323    4.1255   -2.5299 H   0  0  0  0  0  0  0  0  0  0  0  0
    3.6292    2.1270   -1.4848 H   0  0  0  0  0  0  0  0  0  0  0  0
    4.3957   -0.5611   -3.2973 H   0  0  0  0  0  0  0  0  0  0  0  0
    5.5220    1.0802   -1.7606 H   0  0  0  0  0  0  0  0  0  0  0  0
    6.9250   -1.7934   -1.6179 H   0  0  0  0  0  0  0  0  0  0  0  0
    5.8289   -3.0116    0.3936 H   0  0  0  0  0  0  0  0  0  0  0  0
   -0.4393   -3.4059    0.5210 H   0  0  0  0  0  0  0  0  0  0  0  0
   -6.0546    3.7084    0.3612 H   0  0  0  0  0  0  0  0  0  0  0  0
   -6.7819    0.6576    3.0127 H   0  0  0  0  0  0  0  0  0  0  0  0
  1  2  1  0
  2  3  2  0
  3  4  1  0
  4  5  2  0
  5  6  1  0
  6  7  2  0
  7  8  1  0
  8  9  2  0
  9 10  1  0
 10 11  2  0
 11 12  1  0
 12 13  2  0
 13 14  1  0
 14 15  1  0
 15 16  1  0
 16 17  2  0
 17 18  1  0
 18 19  1  0
 19 20  2  0
 20 21  1  0
 21 22  1  0
 22 23  2  0
 23 24  1  0
 24 25  2  0
 25 26  1  0
 26 27  2  0
  4 28  1  0
 28 29  2  0
 29 30  1  0
 30 31  2  0
 31 32  1  0
 32 33  2  0
 27  1  1  0
 33 28  1  0
 26  3  1  0
 25  6  1  0
 12  7  1  0
 24 13  1  0
 18 14  2  0
 23 19  1  0
  1 34  1  0
  1 35  1  0
  2 36  1  0
  5 37  1  0
  8 38  1  0
  9 39  1  0
 10 40  1  0
 11 41  1  0
 15 42  1  0
 15 43  1  0
 16 44  1  0
 17 45  1  0
 27 46  1  0
 30 47  1  0
 32 48  1  0
M  END
