
     RDKit          3D

 50 57  0  0  0  0  0  0  0  0999 V2000
    1.0215   -2.8312    2.5395 C   0  0  0  0  0  0  0  0  0  0  0  0
    2.0744   -2.2086    1.6751 C   0  0  0  0  0  0  0  0  0  0  0  0
    1.5009   -1.3648    0.8018 C   0  0  0  0  0  0  0  0  0  0  0  0
    2.1245   -0.5470   -0.2223 C   0  0  0  0  0  0  0  0  0  0  0  0
    1.3183    0.2260   -0.9882 C   0  0  0  0  0  0  0  0  0  0  0  0
   -0.1782    0.2818   -0.8572 C   0  0  0  0  0  0  0  0  0  0  0  0
   -0.9814    1.1045   -1.7048 C   0  0  0  0  0  0  0  0  0  0  0  0
   -0.4629    1.9227   -2.7434 C   0  0  0  0  0  0  0  0  0  0  0  0
   -1.2767    2.7180   -3.5548 C   0  0  0  0  0  0  0  0  0  0  0  0
   -2.6463    2.7266   -3.3604 C   0  0  0  0  0  0  0  0  0  0  0  0
   -3.2028    1.9392   -2.3559 C   0  0  0  0  0  0  0  0  0  0  0  0
   -2.3990    1.1264   -1.5231 C   0  0  0  0  0  0  0  0  0  0  0  0
   -3.0090    0.3288   -0.5024 C   0  0  0  0  0  0  0  0  0  0  0  0
   -4.3464    0.0788   -0.0142 C   0  0  0  0  0  0  0  0  0  0  0  0
   -5.6578    0.5062   -0.3186 C   0  0  0  0  0  0  0  0  0  0  0  0
   -6.7410    0.0064    0.4227 C   0  0  0  0  0  0  0  0  0  0  0  0
   -6.5433   -0.9068    1.4565 C   0  0  0  0  0  0  0  0  0  0  0  0
   -5.2602   -1.3482    1.7815 C   0  0  0  0  0  0  0  0  0  0  0  0
   -4.2081   -0.8320    1.0257 C   0  0  0  0  0  0  0  0  0  0  0  0
   -2.9071   -1.1516    1.2064 O   0  0  0  0  0  0  0  0  0  0  0  0
   -2.1738   -0.4584    0.2912 C   0  0  0  0  0  0  0  0  0  0  0  0
   -0.7852   -0.5148    0.1541 C   0  0  0  0  0  0  0  0  0  0  0  0
    0.0574   -1.3617    1.0080 C   0  0  0  0  0  0  0  0  0  0  0  0
   -0.2356   -2.2049    2.0127 C   0  0  0  0  0  0  0  0  0  0  0  0
    3.5349   -0.4662   -0.4529 C   0  0  0  0  0  0  0  0  0  0  0  0
    4.2422   -1.2256   -1.8546 S   0  0  0  0  0  0  0  0  0  0  0  0
    5.8446   -0.7398   -1.4403 C   0  0  0  0  0  0  0  0  0  0  0  0
    5.8179   -0.0370   -0.2768 C   0  0  0  0  0  0  0  0  0  0  0  0
    7.0835    0.8112    0.8276 Si  0  0  0  0  0  4  0  0  0  0  0  0
    5.6490    1.3098    1.9897 C   0  0  0  0  0  0  0  0  0  0  0  0
    4.4614    0.8610    1.5269 C   0  0  0  0  0  0  0  0  0  0  0  0
    4.5283    0.1256    0.2965 C   0  0  0  0  0  0  0  0  0  0  0  0
    1.0019   -3.9180    2.4173 H   0  0  0  0  0  0  0  0  0  0  0  0
    1.1759   -2.5803    3.5929 H   0  0  0  0  0  0  0  0  0  0  0  0
    3.1298   -2.4214    1.7552 H   0  0  0  0  0  0  0  0  0  0  0  0
    1.7782    0.8567   -1.7390 H   0  0  0  0  0  0  0  0  0  0  0  0
    0.6017    1.9614   -2.9540 H   0  0  0  0  0  0  0  0  0  0  0  0
   -0.8321    3.3272   -4.3377 H   0  0  0  0  0  0  0  0  0  0  0  0
   -3.2845    3.3425   -3.9884 H   0  0  0  0  0  0  0  0  0  0  0  0
   -4.2782    1.9756   -2.2408 H   0  0  0  0  0  0  0  0  0  0  0  0
   -5.8594    1.2145   -1.1135 H   0  0  0  0  0  0  0  0  0  0  0  0
   -7.7497    0.3383    0.1846 H   0  0  0  0  0  0  0  0  0  0  0  0
   -7.3970   -1.2809    2.0173 H   0  0  0  0  0  0  0  0  0  0  0  0
   -5.0819   -2.0576    2.5806 H   0  0  0  0  0  0  0  0  0  0  0  0
   -1.2155   -2.4277    2.4046 H   0  0  0  0  0  0  0  0  0  0  0  0
    6.6812   -1.0055   -2.0721 H   0  0  0  0  0  0  0  0  0  0  0  0
    7.7143    2.0077    0.2168 H   0  0  0  0  0  0  0  0  0  0  0  0
    8.0175   -0.1220    1.5056 H   0  0  0  0  0  0  0  0  0  0  0  0
    5.8329    1.8787    2.8866 H   0  0  0  0  0  0  0  0  0  0  0  0
    3.5210    1.0363    2.0379 H   0  0  0  0  0  0  0  0  0  0  0  0
  1  2  1  0
  2  3  2  0
  3  4  1  0
  4  5  2  0
  5  6  1  0
  6  7  2  0
  7  8  1  0
  8  9  2  0
  9 10  1  0
 10 11  2  0
 11 12  1  0
 12 13  2  0
 13 14  1  0
 14 15  2  0
 15 16  1  0
 16 17  2  0
 17 18  1  0
 18 19  2  0
 19 20  1  0
 20 21  1  0
 21 22  2  0
 22 23  1  0
 23 24  2  0
  4 25  1  0
 25 26  1  0
 26 27  1  0
 27 28  2  0
 28 29  1  0
 29 30  1  0
 30 31  2  0
 31 32  1  0
 24  1  1  0
 32 25  2  0
 23  3  1  0
 32 28  1  0
 22  6  1  0
 12  7  1  0
 21 13  1  0
 19 14  1  0
  1 33  1  0
  1 34  1  0
  2 35  1  0
  5 36  1  0
  8 37  1  0
  9 38  1  0
 10 39  1  0
 11 40  1  0
 15 41  1  0
 16 42  1  0
 17 43  1  0
 18 44  1  0
 24 45  1  0
 27 46  1  0
 29 47  1  0
 29 48  1  0
 30 49  1  0
 31 50  1  0
M  END
