
     RDKit          3D

 48 55  0  0  0  0  0  0  0  0999 V2000
    1.6211    3.3179   -1.0139 C   0  0  0  0  0  0  0  0  0  0  0  0
    2.8438    2.4936   -0.7567 C   0  0  0  0  0  0  0  0  0  0  0  0
    2.4848    1.2423   -0.4235 C   0  0  0  0  0  0  0  0  0  0  0  0
    3.3405    0.0793   -0.2467 C   0  0  0  0  0  0  0  0  0  0  0  0
    2.7243   -1.1226   -0.1790 C   0  0  0  0  0  0  0  0  0  0  0  0
    1.2526   -1.2558   -0.2231 C   0  0  0  0  0  0  0  0  0  0  0  0
    0.5930   -2.4840   -0.3527 C   0  0  0  0  0  0  0  0  0  0  0  0
    1.2330   -3.6904   -0.5333 C   0  0  0  0  0  0  0  0  0  0  0  0
    0.1289   -4.9929   -0.6414 S   0  0  0  0  0  0  0  0  0  0  0  0
   -1.2146   -3.9443   -0.4489 C   0  0  0  0  0  0  0  0  0  0  0  0
   -0.8497   -2.6176   -0.3674 C   0  0  0  0  0  0  0  0  0  0  0  0
   -1.7417   -1.5304   -0.1807 C   0  0  0  0  0  0  0  0  0  0  0  0
   -3.1465   -1.5896   -0.3070 C   0  0  0  0  0  0  0  0  0  0  0  0
   -3.9815   -2.5504   -0.8446 N   0  0  0  0  0  0  0  0  0  0  0  0
   -5.2911   -2.1725   -0.7567 C   0  0  0  0  0  0  0  0  0  0  0  0
   -5.3193   -0.9284   -0.1809 C   0  0  0  0  0  0  0  0  0  0  0  0
   -3.9706   -0.5302    0.0786 C   0  0  0  0  0  0  0  0  0  0  0  0
   -3.3738    0.6150    0.6637 C   0  0  0  0  0  0  0  0  0  0  0  0
   -4.2189    1.6200    1.1904 C   0  0  0  0  0  0  0  0  0  0  0  0
   -3.6892    2.7174    1.8594 C   0  0  0  0  0  0  0  0  0  0  0  0
   -2.3184    2.8086    2.0308 C   0  0  0  0  0  0  0  0  0  0  0  0
   -1.4800    1.8249    1.4931 C   0  0  0  0  0  0  0  0  0  0  0  0
   -1.9587    0.7250    0.7354 C   0  0  0  0  0  0  0  0  0  0  0  0
   -1.1060   -0.2822    0.1490 C   0  0  0  0  0  0  0  0  0  0  0  0
    0.3432   -0.1481   -0.0854 C   0  0  0  0  0  0  0  0  0  0  0  0
    1.0237    1.1514   -0.3709 C   0  0  0  0  0  0  0  0  0  0  0  0
    0.5195    2.3282   -0.7860 C   0  0  0  0  0  0  0  0  0  0  0  0
    4.7663    0.1247   -0.1330 C   0  0  0  0  0  0  0  0  0  0  0  0
    5.5552    0.8496    0.7479 C   0  0  0  0  0  0  0  0  0  0  0  0
    6.9237    0.7176    0.6069 N   0  0  0  0  0  0  0  0  0  0  0  0
    7.1724   -0.1015   -0.3889 C   0  0  0  0  0  0  0  0  0  0  0  0
    5.8101   -0.7481   -1.1999 S   0  0  0  0  0  0  0  0  0  0  0  0
    1.5514    4.1585   -0.3177 H   0  0  0  0  0  0  0  0  0  0  0  0
    1.6082    3.6878   -2.0433 H   0  0  0  0  0  0  0  0  0  0  0  0
    3.8505    2.8523   -0.9104 H   0  0  0  0  0  0  0  0  0  0  0  0
    3.3040   -2.0266   -0.0293 H   0  0  0  0  0  0  0  0  0  0  0  0
    2.2891   -3.9061   -0.6058 H   0  0  0  0  0  0  0  0  0  0  0  0
   -2.1845   -4.4065   -0.3743 H   0  0  0  0  0  0  0  0  0  0  0  0
   -3.6708   -3.3898   -1.3089 H   0  0  0  0  0  0  0  0  0  0  0  0
   -6.0837   -2.8117   -1.1220 H   0  0  0  0  0  0  0  0  0  0  0  0
   -6.2153   -0.3562    0.0195 H   0  0  0  0  0  0  0  0  0  0  0  0
   -5.2997    1.5416    1.1065 H   0  0  0  0  0  0  0  0  0  0  0  0
   -4.3469    3.4768    2.2726 H   0  0  0  0  0  0  0  0  0  0  0  0
   -1.8910    3.6358    2.5915 H   0  0  0  0  0  0  0  0  0  0  0  0
   -0.4181    1.9178    1.7113 H   0  0  0  0  0  0  0  0  0  0  0  0
   -0.5207    2.5573   -0.9630 H   0  0  0  0  0  0  0  0  0  0  0  0
    5.1704    1.4988    1.5260 H   0  0  0  0  0  0  0  0  0  0  0  0
    8.1809   -0.3563   -0.6876 H   0  0  0  0  0  0  0  0  0  0  0  0
  1  2  1  0
  2  3  2  0
  3  4  1  0
  4  5  2  0
  5  6  1  0
  6  7  1  0
  7  8  2  0
  8  9  1  0
  9 10  1  0
 10 11  2  0
 11 12  1  0
 12 13  2  0
 13 14  1  0
 14 15  1  0
 15 16  2  0
 16 17  1  0
 17 18  2  0
 18 19  1  0
 19 20  2  0
 20 21  1  0
 21 22  2  0
 22 23  1  0
 23 24  2  0
 24 25  1  0
 25 26  1  0
 26 27  2  0
  4 28  1  0
 28 29  2  0
 29 30  1  0
 30 31  2  0
 31 32  1  0
 27  1  1  0
 32 28  1  0
 26  3  1  0
 25  6  2  0
 11  7  1  0
 24 12  1  0
 17 13  1  0
 23 18  1  0
  1 33  1  0
  1 34  1  0
  2 35  1  0
  5 36  1  0
  8 37  1  0
 10 38  1  0
 14 39  1  0
 15 40  1  0
 16 41  1  0
 19 42  1  0
 20 43  1  0
 21 44  1  0
 22 45  1  0
 27 46  1  0
 29 47  1  0
 31 48  1  0
M  END
