
     RDKit          3D

 45 52  0  0  0  0  0  0  0  0999 V2000
    0.4498    0.0702   -3.7881 C   0  0  0  0  0  0  0  0  0  0  0  0
    1.5135   -0.2688   -2.7944 C   0  0  0  0  0  0  0  0  0  0  0  0
    0.9782   -0.3514   -1.5653 C   0  0  0  0  0  0  0  0  0  0  0  0
    1.6510   -0.6530   -0.3084 C   0  0  0  0  0  0  0  0  0  0  0  0
    0.9107   -0.6563    0.8241 C   0  0  0  0  0  0  0  0  0  0  0  0
   -0.5418   -0.3810    0.8174 C   0  0  0  0  0  0  0  0  0  0  0  0
   -1.3268   -0.3860    1.9950 C   0  0  0  0  0  0  0  0  0  0  0  0
   -0.8617   -0.6387    3.2700 C   0  0  0  0  0  0  0  0  0  0  0  0
   -2.1118   -0.5571    4.4664 S   0  0  0  0  0  0  0  0  0  0  0  0
   -3.3156   -0.1811    3.2962 C   0  0  0  0  0  0  0  0  0  0  0  0
   -2.7228   -0.1343    2.0704 C   0  0  0  0  0  0  0  0  0  0  0  0
   -3.3433    0.1392    0.8350 C   0  0  0  0  0  0  0  0  0  0  0  0
   -4.6764    0.4130    0.6237 C   0  0  0  0  0  0  0  0  0  0  0  0
   -5.8491    0.5460    1.2913 O   0  0  0  0  0  0  0  0  0  0  0  0
   -6.7606    0.8366    0.3166 C   0  0  0  0  0  0  0  0  0  0  0  0
   -6.2081    0.8929   -0.9451 C   0  0  0  0  0  0  0  0  0  0  0  0
   -4.8475    0.6114   -0.7036 C   0  0  0  0  0  0  0  0  0  0  0  0
   -3.6197    0.4613   -1.3223 N   0  0  0  0  0  0  0  0  0  0  0  0
   -2.6535    0.1643   -0.3654 C   0  0  0  0  0  0  0  0  0  0  0  0
   -1.2581   -0.0881   -0.4032 C   0  0  0  0  0  0  0  0  0  0  0  0
   -0.4601   -0.0691   -1.6419 C   0  0  0  0  0  0  0  0  0  0  0  0
   -0.7752    0.1760   -2.9257 C   0  0  0  0  0  0  0  0  0  0  0  0
    3.0457   -0.9288   -0.1676 C   0  0  0  0  0  0  0  0  0  0  0  0
    3.7027   -2.4676   -0.6504 S   0  0  0  0  0  0  0  0  0  0  0  0
    5.3124   -2.0415   -0.1890 C   0  0  0  0  0  0  0  0  0  0  0  0
    5.3183   -0.7758    0.3087 C   0  0  0  0  0  0  0  0  0  0  0  0
    6.2929    0.1086    0.8322 C   0  0  0  0  0  0  0  0  0  0  0  0
    5.6958    1.2724    1.1776 C   0  0  0  0  0  0  0  0  0  0  0  0
    4.1906    1.2350    0.8882 C   0  0  0  0  0  0  0  0  0  0  0  0
    4.0563   -0.1408    0.3278 C   0  0  0  0  0  0  0  0  0  0  0  0
    0.6628    1.0205   -4.2864 H   0  0  0  0  0  0  0  0  0  0  0  0
    0.3385   -0.7213   -4.5349 H   0  0  0  0  0  0  0  0  0  0  0  0
    2.5519   -0.4212   -3.0478 H   0  0  0  0  0  0  0  0  0  0  0  0
    1.3822   -0.8773    1.7751 H   0  0  0  0  0  0  0  0  0  0  0  0
    0.1382   -0.8717    3.6050 H   0  0  0  0  0  0  0  0  0  0  0  0
   -4.3479   -0.0248    3.5785 H   0  0  0  0  0  0  0  0  0  0  0  0
   -7.7702    0.9772    0.6797 H   0  0  0  0  0  0  0  0  0  0  0  0
   -6.7148    1.1027   -1.8748 H   0  0  0  0  0  0  0  0  0  0  0  0
   -3.4924    0.5579   -2.3188 H   0  0  0  0  0  0  0  0  0  0  0  0
   -1.7361    0.4216   -3.3381 H   0  0  0  0  0  0  0  0  0  0  0  0
    6.1286   -2.7385   -0.3133 H   0  0  0  0  0  0  0  0  0  0  0  0
    7.3443   -0.1197    0.9348 H   0  0  0  0  0  0  0  0  0  0  0  0
    6.1979    2.1284    1.6033 H   0  0  0  0  0  0  0  0  0  0  0  0
    3.9160    2.0011    0.1578 H   0  0  0  0  0  0  0  0  0  0  0  0
    3.6150    1.3580    1.8098 H   0  0  0  0  0  0  0  0  0  0  0  0
  1  2  1  0
  2  3  2  0
  3  4  1  0
  4  5  2  0
  5  6  1  0
  6  7  1  0
  7  8  2  0
  8  9  1  0
  9 10  1  0
 10 11  2  0
 11 12  1  0
 12 13  1  0
 13 14  1  0
 14 15  1  0
 15 16  2  0
 16 17  1  0
 17 18  1  0
 18 19  1  0
 19 20  1  0
 20 21  1  0
 21 22  2  0
  4 23  1  0
 23 24  1  0
 24 25  1  0
 25 26  2  0
 26 27  1  0
 27 28  2  0
 28 29  1  0
 29 30  1  0
 22  1  1  0
 30 23  2  0
 21  3  1  0
 30 26  1  0
 20  6  2  0
 11  7  1  0
 19 12  2  0
 17 13  2  0
  1 31  1  0
  1 32  1  0
  2 33  1  0
  5 34  1  0
  8 35  1  0
 10 36  1  0
 15 37  1  0
 16 38  1  0
 18 39  1  0
 22 40  1  0
 25 41  1  0
 27 42  1  0
 28 43  1  0
 29 44  1  0
 29 45  1  0
M  END
