
     RDKit          3D

 47 54  0  0  0  0  0  0  0  0999 V2000
   -1.0424    2.7534    2.3084 C   0  0  0  0  0  0  0  0  0  0  0  0
   -2.0312    1.7533    1.8094 C   0  0  0  0  0  0  0  0  0  0  0  0
   -1.3990    0.8166    1.0851 C   0  0  0  0  0  0  0  0  0  0  0  0
   -1.9950   -0.2509    0.3077 C   0  0  0  0  0  0  0  0  0  0  0  0
   -1.1774   -0.9864   -0.4713 C   0  0  0  0  0  0  0  0  0  0  0  0
    0.2852   -0.7630   -0.5031 C   0  0  0  0  0  0  0  0  0  0  0  0
    1.0714   -1.5436   -1.3893 C   0  0  0  0  0  0  0  0  0  0  0  0
    0.6072   -2.4436   -2.2769 N   0  0  0  0  0  0  0  0  0  0  0  0
    1.9146   -3.0493   -3.0825 S   0  0  0  0  0  0  0  0  0  0  0  0
    3.1251   -2.2218   -2.3335 N   0  0  0  0  0  0  0  0  0  0  0  0
    2.5742   -1.4182   -1.4050 C   0  0  0  0  0  0  0  0  0  0  0  0
    3.2628   -0.5442   -0.4849 C   0  0  0  0  0  0  0  0  0  0  0  0
    2.4210    0.2015    0.4066 C   0  0  0  0  0  0  0  0  0  0  0  0
    3.1367    0.9170    1.3686 C   0  0  0  0  0  0  0  0  0  0  0  0
    4.4821    1.0261    1.4539 N   0  0  0  0  0  0  0  0  0  0  0  0
    5.2212    0.3687    0.5537 C   0  0  0  0  0  0  0  0  0  0  0  0
    6.6000    0.4951    0.6301 C   0  0  0  0  0  0  0  0  0  0  0  0
    7.4347   -0.1716   -0.2574 C   0  0  0  0  0  0  0  0  0  0  0  0
    6.8404   -0.9629   -1.2112 C   0  0  0  0  0  0  0  0  0  0  0  0
    5.5047   -1.1105   -1.3165 N   0  0  0  0  0  0  0  0  0  0  0  0
    4.6846   -0.4549   -0.4515 C   0  0  0  0  0  0  0  0  0  0  0  0
    0.9740    0.1684    0.3369 C   0  0  0  0  0  0  0  0  0  0  0  0
    0.0482    1.0711    1.0911 C   0  0  0  0  0  0  0  0  0  0  0  0
    0.2481    2.2315    1.7446 C   0  0  0  0  0  0  0  0  0  0  0  0
   -3.4212   -0.5746    0.2940 C   0  0  0  0  0  0  0  0  0  0  0  0
   -4.0108   -1.5848    1.0909 C   0  0  0  0  0  0  0  0  0  0  0  0
   -5.4104   -1.8894    1.0819 C   0  0  0  0  0  0  0  0  0  0  0  0
   -6.3597   -1.2170    0.2810 C   0  0  0  0  0  0  0  0  0  0  0  0
   -5.7723   -0.2211   -0.5004 C   0  0  0  0  0  0  0  0  0  0  0  0
   -6.4978    0.5669   -1.3591 C   0  0  0  0  0  0  0  0  0  0  0  0
   -5.4871    1.6941   -2.1736 S   0  0  0  0  0  0  0  0  0  0  0  0
   -4.0752    1.1213   -1.3753 C   0  0  0  0  0  0  0  0  0  0  0  0
   -4.3642    0.0970   -0.5031 C   0  0  0  0  0  0  0  0  0  0  0  0
   -1.0155    2.7799    3.4014 H   0  0  0  0  0  0  0  0  0  0  0  0
   -1.2635    3.7519    1.9197 H   0  0  0  0  0  0  0  0  0  0  0  0
   -3.0979    1.8320    1.9592 H   0  0  0  0  0  0  0  0  0  0  0  0
   -1.5742   -1.7888   -1.0897 H   0  0  0  0  0  0  0  0  0  0  0  0
    2.6456    1.4209    2.1928 H   0  0  0  0  0  0  0  0  0  0  0  0
    7.0312    1.1264    1.4030 H   0  0  0  0  0  0  0  0  0  0  0  0
    8.5123   -0.0749   -0.1991 H   0  0  0  0  0  0  0  0  0  0  0  0
    7.4279   -1.5166   -1.9377 H   0  0  0  0  0  0  0  0  0  0  0  0
    1.1633    2.7884    1.8561 H   0  0  0  0  0  0  0  0  0  0  0  0
   -3.3688   -2.1670    1.7531 H   0  0  0  0  0  0  0  0  0  0  0  0
   -5.7612   -2.6895    1.7350 H   0  0  0  0  0  0  0  0  0  0  0  0
   -7.4130   -1.4642    0.2902 H   0  0  0  0  0  0  0  0  0  0  0  0
   -7.5599    0.5524   -1.5611 H   0  0  0  0  0  0  0  0  0  0  0  0
   -3.1190    1.5750   -1.5975 H   0  0  0  0  0  0  0  0  0  0  0  0
  1  2  1  0
  2  3  2  0
  3  4  1  0
  4  5  2  0
  5  6  1  0
  6  7  1  0
  7  8  2  0
  8  9  1  0
  9 10  1  0
 10 11  2  0
 11 12  1  0
 12 13  2  0
 13 14  1  0
 14 15  2  0
 15 16  1  0
 16 17  2  0
 17 18  1  0
 18 19  2  0
 19 20  1  0
 20 21  2  0
 13 22  1  0
 22 23  1  0
 23 24  2  0
  4 25  1  0
 25 26  2  0
 26 27  1  0
 27 28  2  0
 28 29  1  0
 29 30  2  0
 30 31  1  0
 31 32  1  0
 32 33  2  0
 24  1  1  0
 33 25  1  0
 23  3  1  0
 33 29  1  0
 22  6  2  0
 11  7  1  0
 21 12  1  0
 21 16  1  0
  1 34  1  0
  1 35  1  0
  2 36  1  0
  5 37  1  0
 14 38  1  0
 17 39  1  0
 18 40  1  0
 19 41  1  0
 24 42  1  0
 26 43  1  0
 27 44  1  0
 28 45  1  0
 30 46  1  0
 32 47  1  0
M  END
