
     RDKit          3D

 41 47  0  0  0  0  0  0  0  0999 V2000
   -1.7855   -2.9732   -1.7415 C   0  0  0  0  0  0  0  0  0  0  0  0
   -2.8106   -1.9571   -1.3521 C   0  0  0  0  0  0  0  0  0  0  0  0
   -2.2120   -0.9126   -0.7561 C   0  0  0  0  0  0  0  0  0  0  0  0
   -2.8309    0.2930   -0.2317 C   0  0  0  0  0  0  0  0  0  0  0  0
   -2.0135    1.2144    0.3215 C   0  0  0  0  0  0  0  0  0  0  0  0
   -0.5467    1.0316    0.3901 C   0  0  0  0  0  0  0  0  0  0  0  0
    0.2422    2.0492    0.9792 C   0  0  0  0  0  0  0  0  0  0  0  0
   -0.2084    3.2051    1.5012 N   0  0  0  0  0  0  0  0  0  0  0  0
    1.1090    4.0340    2.0519 S   0  0  0  0  0  0  0  0  0  0  0  0
    2.3039    2.9701    1.6606 N   0  0  0  0  0  0  0  0  0  0  0  0
    1.7371    1.9008    1.0710 C   0  0  0  0  0  0  0  0  0  0  0  0
    2.4012    0.7236    0.5649 C   0  0  0  0  0  0  0  0  0  0  0  0
    3.8116    0.5496    0.6353 C   0  0  0  0  0  0  0  0  0  0  0  0
    4.6510    1.4652    1.1784 N   0  0  0  0  0  0  0  0  0  0  0  0
    5.9824    1.2356    1.2120 C   0  0  0  0  0  0  0  0  0  0  0  0
    6.5707    0.0946    0.7157 C   0  0  0  0  0  0  0  0  0  0  0  0
    5.7368   -0.8586    0.1552 C   0  0  0  0  0  0  0  0  0  0  0  0
    4.3501   -0.6325    0.1136 C   0  0  0  0  0  0  0  0  0  0  0  0
    3.4802   -1.5547   -0.4353 C   0  0  0  0  0  0  0  0  0  0  0  0
    2.1441   -1.3905   -0.5017 N   0  0  0  0  0  0  0  0  0  0  0  0
    1.5666   -0.2767   -0.0192 C   0  0  0  0  0  0  0  0  0  0  0  0
    0.1472   -0.1207   -0.1003 C   0  0  0  0  0  0  0  0  0  0  0  0
   -0.7631   -1.1406   -0.7055 C   0  0  0  0  0  0  0  0  0  0  0  0
   -0.5135   -2.3347   -1.2735 C   0  0  0  0  0  0  0  0  0  0  0  0
   -4.2374    0.5582   -0.2224 C   0  0  0  0  0  0  0  0  0  0  0  0
   -5.2282   -0.0577    0.5240 C   0  0  0  0  0  0  0  0  0  0  0  0
   -6.5283    0.4607    0.2574 C   0  0  0  0  0  0  0  0  0  0  0  0
   -6.4989    1.4545   -0.6933 C   0  0  0  0  0  0  0  0  0  0  0  0
   -4.9152    1.7553   -1.2605 S   0  0  0  0  0  0  0  0  0  0  0  0
   -1.9595   -3.9260   -1.2332 H   0  0  0  0  0  0  0  0  0  0  0  0
   -1.7738   -3.1288   -2.8241 H   0  0  0  0  0  0  0  0  0  0  0  0
   -3.8684   -2.0645   -1.5391 H   0  0  0  0  0  0  0  0  0  0  0  0
   -2.4184    2.1307    0.7459 H   0  0  0  0  0  0  0  0  0  0  0  0
    6.5739    2.0258    1.6657 H   0  0  0  0  0  0  0  0  0  0  0  0
    7.6439   -0.0474    0.7639 H   0  0  0  0  0  0  0  0  0  0  0  0
    6.1659   -1.7730   -0.2472 H   0  0  0  0  0  0  0  0  0  0  0  0
    3.8369   -2.4916   -0.8564 H   0  0  0  0  0  0  0  0  0  0  0  0
    0.4490   -2.8039   -1.4016 H   0  0  0  0  0  0  0  0  0  0  0  0
   -5.0222   -0.8477    1.2366 H   0  0  0  0  0  0  0  0  0  0  0  0
   -7.4372    0.1206    0.7380 H   0  0  0  0  0  0  0  0  0  0  0  0
   -7.3321    2.0200   -1.0872 H   0  0  0  0  0  0  0  0  0  0  0  0
  1  2  1  0
  2  3  2  0
  3  4  1  0
  4  5  2  0
  5  6  1  0
  6  7  1  0
  7  8  2  0
  8  9  1  0
  9 10  1  0
 10 11  2  0
 11 12  1  0
 12 13  2  0
 13 14  1  0
 14 15  2  0
 15 16  1  0
 16 17  2  0
 17 18  1  0
 18 19  2  0
 19 20  1  0
 20 21  2  0
 21 22  1  0
 22 23  1  0
 23 24  2  0
  4 25  1  0
 25 26  2  0
 26 27  1  0
 27 28  2  0
 28 29  1  0
 24  1  1  0
 29 25  1  0
 23  3  1  0
 22  6  2  0
 11  7  1  0
 21 12  1  0
 18 13  1  0
  1 30  1  0
  1 31  1  0
  2 32  1  0
  5 33  1  0
 15 34  1  0
 16 35  1  0
 17 36  1  0
 19 37  1  0
 24 38  1  0
 26 39  1  0
 27 40  1  0
 28 41  1  0
M  END
