
     RDKit          3D

 40 47  0  0  0  0  0  0  0  0999 V2000
   -0.4389    2.2601   -2.8577 C   0  0  0  0  0  0  0  0  0  0  0  0
   -1.5513    1.8746   -1.9363 C   0  0  0  0  0  0  0  0  0  0  0  0
   -1.0782    1.0841   -0.9594 C   0  0  0  0  0  0  0  0  0  0  0  0
   -1.8151    0.4784    0.1383 C   0  0  0  0  0  0  0  0  0  0  0  0
   -1.1306   -0.2941    1.0091 C   0  0  0  0  0  0  0  0  0  0  0  0
    0.3204   -0.5431    0.8640 C   0  0  0  0  0  0  0  0  0  0  0  0
    0.9774   -1.3708    1.8108 C   0  0  0  0  0  0  0  0  0  0  0  0
    0.4235   -1.9858    2.8792 N   0  0  0  0  0  0  0  0  0  0  0  0
    1.6402   -2.8313    3.6490 S   0  0  0  0  0  0  0  0  0  0  0  0
    2.9350   -2.4508    2.6671 N   0  0  0  0  0  0  0  0  0  0  0  0
    2.3987   -1.6692    1.7440 C   0  0  0  0  0  0  0  0  0  0  0  0
    3.1169   -1.0733    0.6563 C   0  0  0  0  0  0  0  0  0  0  0  0
    4.5033   -1.3057    0.5092 C   0  0  0  0  0  0  0  0  0  0  0  0
    5.7936   -2.1820    1.3022 S   0  0  0  0  0  0  0  0  0  0  0  0
    6.9176   -1.6294    0.1377 C   0  0  0  0  0  0  0  0  0  0  0  0
    6.3677   -0.8144   -0.8220 C   0  0  0  0  0  0  0  0  0  0  0  0
    4.9693   -0.6366   -0.5929 C   0  0  0  0  0  0  0  0  0  0  0  0
    3.7091    0.2533   -1.4136 S   0  0  0  0  0  0  0  0  0  0  0  0
    2.4979   -0.2607   -0.2768 C   0  0  0  0  0  0  0  0  0  0  0  0
    1.1044    0.0192   -0.1950 C   0  0  0  0  0  0  0  0  0  0  0  0
    0.3652    0.8756   -1.1508 C   0  0  0  0  0  0  0  0  0  0  0  0
    0.7383    1.5586   -2.2476 C   0  0  0  0  0  0  0  0  0  0  0  0
   -3.2441    0.6868    0.3813 C   0  0  0  0  0  0  0  0  0  0  0  0
   -3.8023    1.8958    0.8085 C   0  0  0  0  0  0  0  0  0  0  0  0
   -5.1281    2.1672    1.0449 N   0  0  0  0  0  0  0  0  0  0  0  0
   -6.0785    1.2020    0.8694 C   0  0  0  0  0  0  0  0  0  0  0  0
   -5.6618   -0.0733    0.4368 C   0  0  0  0  0  0  0  0  0  0  0  0
   -6.4486   -1.1374    0.2087 N   0  0  0  0  0  0  0  0  0  0  0  0
   -5.4438   -2.3645   -0.2822 S   0  0  0  0  0  0  0  0  0  0  0  0
   -3.9727   -1.6015   -0.2288 N   0  0  0  0  0  0  0  0  0  0  0  0
   -4.1996   -0.3405    0.1833 C   0  0  0  0  0  0  0  0  0  0  0  0
   -0.6261    1.9037   -3.8748 H   0  0  0  0  0  0  0  0  0  0  0  0
   -0.2906    3.3438   -2.8675 H   0  0  0  0  0  0  0  0  0  0  0  0
   -2.5739    2.1933   -2.0700 H   0  0  0  0  0  0  0  0  0  0  0  0
   -1.6292   -0.7674    1.8523 H   0  0  0  0  0  0  0  0  0  0  0  0
    7.9512   -1.9387    0.2186 H   0  0  0  0  0  0  0  0  0  0  0  0
    6.9241   -0.3710   -1.6378 H   0  0  0  0  0  0  0  0  0  0  0  0
    1.7192    1.6293   -2.6845 H   0  0  0  0  0  0  0  0  0  0  0  0
   -3.1507    2.7517    0.9891 H   0  0  0  0  0  0  0  0  0  0  0  0
   -7.1088    1.4639    1.0701 H   0  0  0  0  0  0  0  0  0  0  0  0
  1  2  1  0
  2  3  2  0
  3  4  1  0
  4  5  2  0
  5  6  1  0
  6  7  1  0
  7  8  2  0
  8  9  1  0
  9 10  1  0
 10 11  2  0
 11 12  1  0
 12 13  1  0
 13 14  1  0
 14 15  1  0
 15 16  2  0
 16 17  1  0
 17 18  1  0
 18 19  1  0
 19 20  1  0
 20 21  1  0
 21 22  2  0
  4 23  1  0
 23 24  2  0
 24 25  1  0
 25 26  2  0
 26 27  1  0
 27 28  2  0
 28 29  1  0
 29 30  1  0
 30 31  2  0
 22  1  1  0
 31 23  1  0
 21  3  1  0
 31 27  1  0
 20  6  2  0
 11  7  1  0
 19 12  2  0
 17 13  2  0
  1 32  1  0
  1 33  1  0
  2 34  1  0
  5 35  1  0
 15 36  1  0
 16 37  1  0
 22 38  1  0
 24 39  1  0
 26 40  1  0
M  END
