
     RDKit          3D

 34 39  0  0  0  0  0  0  0  0999 V2000
   -0.3986    3.3897   -0.1491 C   0  0  0  0  0  0  0  0  0  0  0  0
    0.6159    2.3022   -0.3423 C   0  0  0  0  0  0  0  0  0  0  0  0
    0.0150    1.1018   -0.2892 C   0  0  0  0  0  0  0  0  0  0  0  0
    0.6013   -0.2267   -0.4327 C   0  0  0  0  0  0  0  0  0  0  0  0
   -0.2341   -1.2893   -0.3527 C   0  0  0  0  0  0  0  0  0  0  0  0
   -1.6890   -1.1311   -0.1379 C   0  0  0  0  0  0  0  0  0  0  0  0
   -2.5338   -2.2736   -0.0652 C   0  0  0  0  0  0  0  0  0  0  0  0
   -2.1738   -3.5659   -0.1731 N   0  0  0  0  0  0  0  0  0  0  0  0
   -3.5585   -4.4654   -0.0136 S   0  0  0  0  0  0  0  0  0  0  0  0
   -4.6863   -3.2675    0.2041 N   0  0  0  0  0  0  0  0  0  0  0  0
   -4.0188   -2.1047    0.1582 C   0  0  0  0  0  0  0  0  0  0  0  0
   -4.5965   -0.8204    0.2995 C   0  0  0  0  0  0  0  0  0  0  0  0
   -3.7180    0.2765    0.2209 C   0  0  0  0  0  0  0  0  0  0  0  0
   -2.3219    0.1397    0.0117 C   0  0  0  0  0  0  0  0  0  0  0  0
   -1.4178    1.2998   -0.0698 C   0  0  0  0  0  0  0  0  0  0  0  0
   -1.6742    2.6155    0.0168 C   0  0  0  0  0  0  0  0  0  0  0  0
    1.9938   -0.4871   -0.6107 C   0  0  0  0  0  0  0  0  0  0  0  0
    2.6179   -1.2317   -2.0748 S   0  0  0  0  0  0  0  0  0  0  0  0
    4.2684   -1.1718   -1.5478 C   0  0  0  0  0  0  0  0  0  0  0  0
    4.2848   -0.6030   -0.3303 C   0  0  0  0  0  0  0  0  0  0  0  0
    5.3830   -0.3623    0.4359 O   0  0  0  0  0  0  0  0  0  0  0  0
    4.7751    0.2183    1.5349 C   0  0  0  0  0  0  0  0  0  0  0  0
    3.3817    0.3222    1.4325 C   0  0  0  0  0  0  0  0  0  0  0  0
    3.0663   -0.2307    0.1782 C   0  0  0  0  0  0  0  0  0  0  0  0
   -0.4464    4.0443   -1.0243 H   0  0  0  0  0  0  0  0  0  0  0  0
   -0.1775    3.9816    0.7438 H   0  0  0  0  0  0  0  0  0  0  0  0
    1.6675    2.4835   -0.5062 H   0  0  0  0  0  0  0  0  0  0  0  0
    0.1386   -2.3079   -0.4327 H   0  0  0  0  0  0  0  0  0  0  0  0
   -5.6610   -0.6951    0.4596 H   0  0  0  0  0  0  0  0  0  0  0  0
   -4.1498    1.2709    0.3277 H   0  0  0  0  0  0  0  0  0  0  0  0
   -2.6350    3.0800    0.1725 H   0  0  0  0  0  0  0  0  0  0  0  0
    5.0988   -1.5377   -2.1331 H   0  0  0  0  0  0  0  0  0  0  0  0
    5.4672    0.5068    2.3153 H   0  0  0  0  0  0  0  0  0  0  0  0
    2.7157    0.7393    2.1740 H   0  0  0  0  0  0  0  0  0  0  0  0
  1  2  1  0
  2  3  2  0
  3  4  1  0
  4  5  2  0
  5  6  1  0
  6  7  1  0
  7  8  2  0
  8  9  1  0
  9 10  1  0
 10 11  2  0
 11 12  1  0
 12 13  2  0
 13 14  1  0
 14 15  1  0
 15 16  2  0
  4 17  1  0
 17 18  1  0
 18 19  1  0
 19 20  2  0
 20 21  1  0
 21 22  1  0
 22 23  2  0
 23 24  1  0
 16  1  1  0
 24 17  2  0
 15  3  1  0
 24 20  1  0
 14  6  2  0
 11  7  1  0
  1 25  1  0
  1 26  1  0
  2 27  1  0
  5 28  1  0
 12 29  1  0
 13 30  1  0
 16 31  1  0
 19 32  1  0
 22 33  1  0
 23 34  1  0
M  END
