
     RDKit          3D

 47 54  0  0  0  0  0  0  0  0999 V2000
   -0.8111   -3.9597   -0.3554 Si  0  0  0  0  0  4  0  0  0  0  0  0
   -1.9888   -2.5876    0.0865 C   0  0  0  0  0  0  0  0  0  0  0  0
   -1.3456   -1.4155    0.2759 C   0  0  0  0  0  0  0  0  0  0  0  0
   -2.0040   -0.1511    0.6362 C   0  0  0  0  0  0  0  0  0  0  0  0
   -1.2434    0.9558    0.8015 C   0  0  0  0  0  0  0  0  0  0  0  0
    0.2153    0.9196    0.6406 C   0  0  0  0  0  0  0  0  0  0  0  0
    1.0388    2.0383    0.8102 C   0  0  0  0  0  0  0  0  0  0  0  0
    0.6790    3.3241    1.1473 C   0  0  0  0  0  0  0  0  0  0  0  0
    1.7879    4.1335    1.2138 O   0  0  0  0  0  0  0  0  0  0  0  0
    2.8835    3.3621    0.9168 C   0  0  0  0  0  0  0  0  0  0  0  0
    2.4372    2.1029    0.6739 C   0  0  0  0  0  0  0  0  0  0  0  0
    3.1201    0.9119    0.3243 C   0  0  0  0  0  0  0  0  0  0  0  0
    4.4716    0.6334    0.1134 C   0  0  0  0  0  0  0  0  0  0  0  0
    5.7018    1.3140    0.1376 C   0  0  0  0  0  0  0  0  0  0  0  0
    6.8732    0.5997   -0.1546 C   0  0  0  0  0  0  0  0  0  0  0  0
    6.8301   -0.7616   -0.4651 C   0  0  0  0  0  0  0  0  0  0  0  0
    5.6178   -1.4578   -0.4949 C   0  0  0  0  0  0  0  0  0  0  0  0
    4.4682   -0.7266   -0.2011 C   0  0  0  0  0  0  0  0  0  0  0  0
    3.2002   -1.2396   -0.1825 O   0  0  0  0  0  0  0  0  0  0  0  0
    2.3408   -0.2195    0.1472 C   0  0  0  0  0  0  0  0  0  0  0  0
    0.9304   -0.2679    0.2890 C   0  0  0  0  0  0  0  0  0  0  0  0
    0.1309   -1.4947    0.0944 C   0  0  0  0  0  0  0  0  0  0  0  0
    0.5812   -2.7234   -0.2340 C   0  0  0  0  0  0  0  0  0  0  0  0
   -3.4187    0.0123    0.7928 C   0  0  0  0  0  0  0  0  0  0  0  0
   -4.1211    0.1006    2.3860 S   0  0  0  0  0  0  0  0  0  0  0  0
   -5.7289    0.2648    1.7824 C   0  0  0  0  0  0  0  0  0  0  0  0
   -5.7065    0.2433    0.4231 C   0  0  0  0  0  0  0  0  0  0  0  0
   -6.9788    0.3536   -0.9590 Si  0  0  0  0  0  4  0  0  0  0  0  0
   -5.5449    0.1823   -2.2133 C   0  0  0  0  0  0  0  0  0  0  0  0
   -4.3531    0.0684   -1.5866 C   0  0  0  0  0  0  0  0  0  0  0  0
   -4.4163    0.0991   -0.1534 C   0  0  0  0  0  0  0  0  0  0  0  0
   -1.0113   -4.4540   -1.7393 H   0  0  0  0  0  0  0  0  0  0  0  0
   -0.7361   -5.0071    0.6915 H   0  0  0  0  0  0  0  0  0  0  0  0
   -3.0488   -2.7712    0.1692 H   0  0  0  0  0  0  0  0  0  0  0  0
   -1.7027    1.9064    1.0530 H   0  0  0  0  0  0  0  0  0  0  0  0
   -0.2558    3.8215    1.3650 H   0  0  0  0  0  0  0  0  0  0  0  0
    3.8359    3.8702    0.9313 H   0  0  0  0  0  0  0  0  0  0  0  0
    5.7577    2.3710    0.3765 H   0  0  0  0  0  0  0  0  0  0  0  0
    7.8313    1.1158   -0.1387 H   0  0  0  0  0  0  0  0  0  0  0  0
    7.7545   -1.2909   -0.6875 H   0  0  0  0  0  0  0  0  0  0  0  0
    5.5673   -2.5133   -0.7335 H   0  0  0  0  0  0  0  0  0  0  0  0
    1.5964   -3.0351   -0.4147 H   0  0  0  0  0  0  0  0  0  0  0  0
   -6.5648    0.3607    2.4618 H   0  0  0  0  0  0  0  0  0  0  0  0
   -7.8930   -0.8132   -1.0344 H   0  0  0  0  0  0  0  0  0  0  0  0
   -7.6321    1.6811   -1.0759 H   0  0  0  0  0  0  0  0  0  0  0  0
   -5.7328    0.1833   -3.2748 H   0  0  0  0  0  0  0  0  0  0  0  0
   -3.4125   -0.0402   -2.1152 H   0  0  0  0  0  0  0  0  0  0  0  0
  1  2  1  0
  2  3  2  0
  3  4  1  0
  4  5  2  0
  5  6  1  0
  6  7  1  0
  7  8  2  0
  8  9  1  0
  9 10  1  0
 10 11  2  0
 11 12  1  0
 12 13  1  0
 13 14  2  0
 14 15  1  0
 15 16  2  0
 16 17  1  0
 17 18  2  0
 18 19  1  0
 19 20  1  0
 20 21  1  0
 21 22  1  0
 22 23  2  0
  4 24  1  0
 24 25  1  0
 25 26  1  0
 26 27  2  0
 27 28  1  0
 28 29  1  0
 29 30  2  0
 30 31  1  0
 23  1  1  0
 31 24  2  0
 22  3  1  0
 31 27  1  0
 21  6  2  0
 11  7  1  0
 20 12  2  0
 18 13  1  0
  1 32  1  0
  1 33  1  0
  2 34  1  0
  5 35  1  0
  8 36  1  0
 10 37  1  0
 14 38  1  0
 15 39  1  0
 16 40  1  0
 17 41  1  0
 23 42  1  0
 26 43  1  0
 28 44  1  0
 28 45  1  0
 29 46  1  0
 30 47  1  0
M  END
