
     RDKit          3D

 48 55  0  0  0  0  0  0  0  0999 V2000
    2.2605    1.6992   -3.1608 C   0  0  0  0  0  0  0  0  0  0  0  0
    3.0470    1.4431   -1.9090 C   0  0  0  0  0  0  0  0  0  0  0  0
    2.2297    0.9927   -0.9427 C   0  0  0  0  0  0  0  0  0  0  0  0
    2.5420    0.6217    0.4316 C   0  0  0  0  0  0  0  0  0  0  0  0
    1.5142    0.2168    1.2149 C   0  0  0  0  0  0  0  0  0  0  0  0
    0.1103    0.1370    0.7316 C   0  0  0  0  0  0  0  0  0  0  0  0
   -0.8922   -0.2879    1.6032 C   0  0  0  0  0  0  0  0  0  0  0  0
   -2.2282   -0.3730    1.1451 C   0  0  0  0  0  0  0  0  0  0  0  0
   -3.3379   -0.7830    1.9082 C   0  0  0  0  0  0  0  0  0  0  0  0
   -3.3738   -1.1776    3.2211 C   0  0  0  0  0  0  0  0  0  0  0  0
   -4.6569   -1.4946    3.5718 O   0  0  0  0  0  0  0  0  0  0  0  0
   -5.4425   -1.2984    2.4701 C   0  0  0  0  0  0  0  0  0  0  0  0
   -4.6701   -0.8607    1.4251 C   0  0  0  0  0  0  0  0  0  0  0  0
   -5.0698   -0.5385    0.1134 C   0  0  0  0  0  0  0  0  0  0  0  0
   -6.3835   -0.6052   -0.3963 C   0  0  0  0  0  0  0  0  0  0  0  0
   -6.6005   -0.2506   -1.7154 C   0  0  0  0  0  0  0  0  0  0  0  0
   -5.5088    0.1506   -2.4606 C   0  0  0  0  0  0  0  0  0  0  0  0
   -4.2392    0.2206   -1.9881 N   0  0  0  0  0  0  0  0  0  0  0  0
   -3.9746   -0.1144   -0.7055 C   0  0  0  0  0  0  0  0  0  0  0  0
   -2.6142   -0.0382   -0.1997 C   0  0  0  0  0  0  0  0  0  0  0  0
   -1.5641    0.3859   -1.0385 C   0  0  0  0  0  0  0  0  0  0  0  0
   -0.2308    0.4771   -0.5995 C   0  0  0  0  0  0  0  0  0  0  0  0
    0.8689    0.9230   -1.4669 C   0  0  0  0  0  0  0  0  0  0  0  0
    0.8670    1.3234   -2.7489 C   0  0  0  0  0  0  0  0  0  0  0  0
    3.8441    0.6205    1.0025 C   0  0  0  0  0  0  0  0  0  0  0  0
    4.3756    1.6960    2.2605 S   0  0  0  0  0  0  0  0  0  0  0  0
    5.9842    1.0328    2.2998 C   0  0  0  0  0  0  0  0  0  0  0  0
    6.0423    0.0506    1.3782 C   0  0  0  0  0  0  0  0  0  0  0  0
    6.9359   -0.9047    0.8352 C   0  0  0  0  0  0  0  0  0  0  0  0
    6.2254   -1.6215   -0.1523 C   0  0  0  0  0  0  0  0  0  0  0  0
    4.9118   -1.1710   -0.2695 N   0  0  0  0  0  0  0  0  0  0  0  0
    4.8842   -0.1783    0.6695 C   0  0  0  0  0  0  0  0  0  0  0  0
    2.6122    1.0693   -3.9831 H   0  0  0  0  0  0  0  0  0  0  0  0
    2.3149    2.7522   -3.4521 H   0  0  0  0  0  0  0  0  0  0  0  0
    4.1093    1.6147   -1.8177 H   0  0  0  0  0  0  0  0  0  0  0  0
    1.6871   -0.0832    2.2455 H   0  0  0  0  0  0  0  0  0  0  0  0
   -0.6493   -0.5519    2.6284 H   0  0  0  0  0  0  0  0  0  0  0  0
   -2.6410   -1.2885    4.0077 H   0  0  0  0  0  0  0  0  0  0  0  0
   -6.4924   -1.5135    2.6092 H   0  0  0  0  0  0  0  0  0  0  0  0
   -7.2141   -0.9262    0.2238 H   0  0  0  0  0  0  0  0  0  0  0  0
   -7.5911   -0.2845   -2.1539 H   0  0  0  0  0  0  0  0  0  0  0  0
   -5.6231    0.4402   -3.5021 H   0  0  0  0  0  0  0  0  0  0  0  0
   -1.7984    0.6545   -2.0678 H   0  0  0  0  0  0  0  0  0  0  0  0
    0.0112    1.3874   -3.4028 H   0  0  0  0  0  0  0  0  0  0  0  0
    6.7353    1.4095    2.9784 H   0  0  0  0  0  0  0  0  0  0  0  0
    7.9692   -1.0737    1.1076 H   0  0  0  0  0  0  0  0  0  0  0  0
    6.5587   -2.4305   -0.7895 H   0  0  0  0  0  0  0  0  0  0  0  0
    4.1557   -1.4691   -0.8752 H   0  0  0  0  0  0  0  0  0  0  0  0
  1  2  1  0
  2  3  2  0
  3  4  1  0
  4  5  2  0
  5  6  1  0
  6  7  2  0
  7  8  1  0
  8  9  1  0
  9 10  2  0
 10 11  1  0
 11 12  1  0
 12 13  2  0
 13 14  1  0
 14 15  2  0
 15 16  1  0
 16 17  2  0
 17 18  1  0
 18 19  2  0
 19 20  1  0
 20 21  1  0
 21 22  2  0
 22 23  1  0
 23 24  2  0
  4 25  1  0
 25 26  1  0
 26 27  1  0
 27 28  2  0
 28 29  1  0
 29 30  2  0
 30 31  1  0
 31 32  1  0
 24  1  1  0
 32 25  2  0
 23  3  1  0
 32 28  1  0
 22  6  1  0
 20  8  2  0
 13  9  1  0
 19 14  1  0
  1 33  1  0
  1 34  1  0
  2 35  1  0
  5 36  1  0
  7 37  1  0
 10 38  1  0
 12 39  1  0
 15 40  1  0
 16 41  1  0
 17 42  1  0
 21 43  1  0
 24 44  1  0
 27 45  1  0
 29 46  1  0
 30 47  1  0
 31 48  1  0
M  END
