
     RDKit          3D

 48 55  0  0  0  0  0  0  0  0999 V2000
    3.0480    2.3621    2.1696 C   0  0  0  0  0  0  0  0  0  0  0  0
    3.9407    1.4920    1.3370 C   0  0  0  0  0  0  0  0  0  0  0  0
    3.2059    0.6656    0.5730 C   0  0  0  0  0  0  0  0  0  0  0  0
    3.6260   -0.3472   -0.3966 C   0  0  0  0  0  0  0  0  0  0  0  0
    2.6367   -1.0024   -1.0563 C   0  0  0  0  0  0  0  0  0  0  0  0
    1.1913   -0.7509   -0.8310 C   0  0  0  0  0  0  0  0  0  0  0  0
    0.2425   -1.4438   -1.5789 C   0  0  0  0  0  0  0  0  0  0  0  0
   -1.1404   -1.2193   -1.3757 C   0  0  0  0  0  0  0  0  0  0  0  0
   -2.0944   -1.8767   -2.2194 C   0  0  0  0  0  0  0  0  0  0  0  0
   -1.8200   -2.7450   -3.2119 N   0  0  0  0  0  0  0  0  0  0  0  0
   -3.2634   -3.1554   -3.9081 S   0  0  0  0  0  0  0  0  0  0  0  0
   -4.3050   -2.2566   -2.9898 N   0  0  0  0  0  0  0  0  0  0  0  0
   -3.5620   -1.6033   -2.0757 C   0  0  0  0  0  0  0  0  0  0  0  0
   -4.0345   -0.7316   -1.0579 C   0  0  0  0  0  0  0  0  0  0  0  0
   -5.4738   -0.4078   -1.0240 C   0  0  0  0  0  0  0  0  0  0  0  0
   -5.9859    0.3879   -0.0745 C   0  0  0  0  0  0  0  0  0  0  0  0
   -5.1383    0.8626    0.9915 C   0  0  0  0  0  0  0  0  0  0  0  0
   -5.6168    1.5141    2.0685 C   0  0  0  0  0  0  0  0  0  0  0  0
   -4.2916    1.7558    3.3494 Si  0  0  0  0  0  4  0  0  0  0  0  0
   -3.1144    0.8501    2.2035 C   0  0  0  0  0  0  0  0  0  0  0  0
   -3.6844    0.5488    1.0154 C   0  0  0  0  0  0  0  0  0  0  0  0
   -3.0649   -0.1752   -0.1538 C   0  0  0  0  0  0  0  0  0  0  0  0
   -1.6358   -0.3259   -0.3761 C   0  0  0  0  0  0  0  0  0  0  0  0
   -0.6290    0.4018    0.3076 C   0  0  0  0  0  0  0  0  0  0  0  0
    0.7490    0.1960    0.1093 C   0  0  0  0  0  0  0  0  0  0  0  0
    1.7901    0.9400    0.8310 C   0  0  0  0  0  0  0  0  0  0  0  0
    1.6809    1.9118    1.7518 C   0  0  0  0  0  0  0  0  0  0  0  0
    5.0367   -0.7141   -0.7035 C   0  0  0  0  0  0  0  0  0  0  0  0
    5.9517   -0.5485    0.2563 N   0  0  0  0  0  0  0  0  0  0  0  0
    7.1865   -0.9117   -0.0789 C   0  0  0  0  0  0  0  0  0  0  0  0
    7.5677   -1.4068   -1.2523 N   0  0  0  0  0  0  0  0  0  0  0  0
    6.5755   -1.5301   -2.1281 C   0  0  0  0  0  0  0  0  0  0  0  0
    5.3014   -1.2107   -1.9193 N   0  0  0  0  0  0  0  0  0  0  0  0
    3.2120    2.1892    3.2372 H   0  0  0  0  0  0  0  0  0  0  0  0
    3.2021    3.4201    1.9387 H   0  0  0  0  0  0  0  0  0  0  0  0
    5.0178    1.5472    1.3710 H   0  0  0  0  0  0  0  0  0  0  0  0
    2.8721   -1.7703   -1.7896 H   0  0  0  0  0  0  0  0  0  0  0  0
    0.5668   -2.1518   -2.3403 H   0  0  0  0  0  0  0  0  0  0  0  0
   -6.1128   -0.8015   -1.8090 H   0  0  0  0  0  0  0  0  0  0  0  0
   -7.0431    0.6318   -0.0659 H   0  0  0  0  0  0  0  0  0  0  0  0
   -6.6402    1.7973    2.2575 H   0  0  0  0  0  0  0  0  0  0  0  0
   -4.5520    0.9991    4.5972 H   0  0  0  0  0  0  0  0  0  0  0  0
   -3.9107    3.1779    3.5249 H   0  0  0  0  0  0  0  0  0  0  0  0
   -2.1260    0.6235    2.5625 H   0  0  0  0  0  0  0  0  0  0  0  0
   -0.9142    1.2007    0.9821 H   0  0  0  0  0  0  0  0  0  0  0  0
    0.7693    2.3335    2.1440 H   0  0  0  0  0  0  0  0  0  0  0  0
    7.9551   -0.7922    0.6772 H   0  0  0  0  0  0  0  0  0  0  0  0
    6.8277   -1.9300   -3.1043 H   0  0  0  0  0  0  0  0  0  0  0  0
  1  2  1  0
  2  3  2  0
  3  4  1  0
  4  5  2  0
  5  6  1  0
  6  7  2  0
  7  8  1  0
  8  9  1  0
  9 10  2  0
 10 11  1  0
 11 12  1  0
 12 13  2  0
 13 14  1  0
 14 15  1  0
 15 16  2  0
 16 17  1  0
 17 18  2  0
 18 19  1  0
 19 20  1  0
 20 21  2  0
 21 22  1  0
 22 23  1  0
 23 24  1  0
 24 25  2  0
 25 26  1  0
 26 27  2  0
  4 28  1  0
 28 29  2  0
 29 30  1  0
 30 31  2  0
 31 32  1  0
 32 33  2  0
 27  1  1  0
 33 28  1  0
 26  3  1  0
 25  6  1  0
 23  8  2  0
 13  9  1  0
 22 14  2  0
 21 17  1  0
  1 34  1  0
  1 35  1  0
  2 36  1  0
  5 37  1  0
  7 38  1  0
 15 39  1  0
 16 40  1  0
 18 41  1  0
 19 42  1  0
 19 43  1  0
 20 44  1  0
 24 45  1  0
 27 46  1  0
 30 47  1  0
 32 48  1  0
M  END
