
     RDKit          3D

 38 43  0  0  0  0  0  0  0  0999 V2000
    2.0001    3.5285    0.0963 C   0  0  0  0  0  0  0  0  0  0  0  0
    2.9512    2.3685    0.0760 C   0  0  0  0  0  0  0  0  0  0  0  0
    2.2648    1.2187   -0.0281 C   0  0  0  0  0  0  0  0  0  0  0  0
    2.7575   -0.1515   -0.0797 C   0  0  0  0  0  0  0  0  0  0  0  0
    1.8381   -1.1431   -0.1552 C   0  0  0  0  0  0  0  0  0  0  0  0
    0.3730   -0.8872   -0.2018 C   0  0  0  0  0  0  0  0  0  0  0  0
   -0.5116   -1.9747   -0.2871 C   0  0  0  0  0  0  0  0  0  0  0  0
   -1.8869   -1.8014   -0.3372 C   0  0  0  0  0  0  0  0  0  0  0  0
   -2.6790   -2.8828   -0.4178 N   0  0  0  0  0  0  0  0  0  0  0  0
   -4.0273   -2.7399   -0.4685 C   0  0  0  0  0  0  0  0  0  0  0  0
   -4.6162   -1.4731   -0.4381 C   0  0  0  0  0  0  0  0  0  0  0  0
   -5.9587   -1.0037   -0.4743 C   0  0  0  0  0  0  0  0  0  0  0  0
   -5.9238    0.3699   -0.4130 C   0  0  0  0  0  0  0  0  0  0  0  0
   -4.6106    0.7524   -0.3408 N   0  0  0  0  0  0  0  0  0  0  0  0
   -3.7875   -0.3531   -0.3542 C   0  0  0  0  0  0  0  0  0  0  0  0
   -2.3812   -0.4803   -0.3002 C   0  0  0  0  0  0  0  0  0  0  0  0
   -1.5205    0.6342   -0.2148 C   0  0  0  0  0  0  0  0  0  0  0  0
   -0.1411    0.4312   -0.1651 C   0  0  0  0  0  0  0  0  0  0  0  0
    0.8369    1.5223   -0.0718 C   0  0  0  0  0  0  0  0  0  0  0  0
    0.6631    2.8523   -0.0037 C   0  0  0  0  0  0  0  0  0  0  0  0
    4.1312   -0.5387   -0.0497 C   0  0  0  0  0  0  0  0  0  0  0  0
    4.8534   -1.1904    0.9376 C   0  0  0  0  0  0  0  0  0  0  0  0
    6.1853   -1.4386    0.6633 N   0  0  0  0  0  0  0  0  0  0  0  0
    6.4680   -0.9754   -0.5330 C   0  0  0  0  0  0  0  0  0  0  0  0
    5.1820   -0.2289   -1.3834 S   0  0  0  0  0  0  0  0  0  0  0  0
    2.1704    4.1935   -0.7553 H   0  0  0  0  0  0  0  0  0  0  0  0
    2.0868    4.0928    1.0294 H   0  0  0  0  0  0  0  0  0  0  0  0
    4.0241    2.4690    0.1391 H   0  0  0  0  0  0  0  0  0  0  0  0
    2.1443   -2.1857   -0.1996 H   0  0  0  0  0  0  0  0  0  0  0  0
   -0.1269   -2.9918   -0.3168 H   0  0  0  0  0  0  0  0  0  0  0  0
   -4.6041   -3.6556   -0.5329 H   0  0  0  0  0  0  0  0  0  0  0  0
   -6.8535   -1.6094   -0.5386 H   0  0  0  0  0  0  0  0  0  0  0  0
   -6.7170    1.1058   -0.4145 H   0  0  0  0  0  0  0  0  0  0  0  0
   -4.2896    1.7089   -0.2859 H   0  0  0  0  0  0  0  0  0  0  0  0
   -1.9236    1.6400   -0.1875 H   0  0  0  0  0  0  0  0  0  0  0  0
   -0.2753    3.3834   -0.0104 H   0  0  0  0  0  0  0  0  0  0  0  0
    4.4471   -1.5082    1.8907 H   0  0  0  0  0  0  0  0  0  0  0  0
    7.4570   -1.0578   -0.9644 H   0  0  0  0  0  0  0  0  0  0  0  0
  1  2  1  0
  2  3  2  0
  3  4  1  0
  4  5  2  0
  5  6  1  0
  6  7  2  0
  7  8  1  0
  8  9  2  0
  9 10  1  0
 10 11  2  0
 11 12  1  0
 12 13  2  0
 13 14  1  0
 14 15  1  0
 15 16  2  0
 16 17  1  0
 17 18  2  0
 18 19  1  0
 19 20  2  0
  4 21  1  0
 21 22  2  0
 22 23  1  0
 23 24  2  0
 24 25  1  0
 20  1  1  0
 25 21  1  0
 19  3  1  0
 18  6  1  0
 16  8  1  0
 15 11  1  0
  1 26  1  0
  1 27  1  0
  2 28  1  0
  5 29  1  0
  7 30  1  0
 10 31  1  0
 12 32  1  0
 13 33  1  0
 14 34  1  0
 17 35  1  0
 20 36  1  0
 22 37  1  0
 24 38  1  0
M  END
