
     RDKit          3D

 47 54  0  0  0  0  0  0  0  0999 V2000
    2.3111    0.9437    3.5214 C   0  0  0  0  0  0  0  0  0  0  0  0
    3.2196    0.7967    2.3458 C   0  0  0  0  0  0  0  0  0  0  0  0
    2.4935    0.5767    1.2376 C   0  0  0  0  0  0  0  0  0  0  0  0
    2.9764    0.3782   -0.1195 C   0  0  0  0  0  0  0  0  0  0  0  0
    2.0525    0.1836   -1.0854 C   0  0  0  0  0  0  0  0  0  0  0  0
    0.5926    0.1631   -0.8139 C   0  0  0  0  0  0  0  0  0  0  0  0
   -0.2642   -0.0453   -1.8841 C   0  0  0  0  0  0  0  0  0  0  0  0
   -1.6433   -0.0775   -1.6856 C   0  0  0  0  0  0  0  0  0  0  0  0
   -2.2260    0.0971   -0.4034 C   0  0  0  0  0  0  0  0  0  0  0  0
   -1.3453    0.3090    0.6831 C   0  0  0  0  0  0  0  0  0  0  0  0
   -2.2530    0.4945    2.1429 S   0  0  0  0  0  0  0  0  0  0  0  0
   -3.7509    0.3062    1.3847 C   0  0  0  0  0  0  0  0  0  0  0  0
   -4.9707    0.3657    2.1303 C   0  0  0  0  0  0  0  0  0  0  0  0
   -6.1308    0.2082    1.4688 C   0  0  0  0  0  0  0  0  0  0  0  0
   -6.1216   -0.0154    0.0333 C   0  0  0  0  0  0  0  0  0  0  0  0
   -7.2412   -0.1814   -0.6965 C   0  0  0  0  0  0  0  0  0  0  0  0
   -6.8337   -0.4426   -2.4942 Si  0  0  0  0  0  4  0  0  0  0  0  0
   -5.0187   -0.2894   -2.0546 C   0  0  0  0  0  0  0  0  0  0  0  0
   -4.8399   -0.0757   -0.7361 C   0  0  0  0  0  0  0  0  0  0  0  0
   -3.6142    0.0991    0.0188 C   0  0  0  0  0  0  0  0  0  0  0  0
    0.0692    0.3460    0.4955 C   0  0  0  0  0  0  0  0  0  0  0  0
    1.0628    0.5651    1.5753 C   0  0  0  0  0  0  0  0  0  0  0  0
    0.9563    0.7771    2.8999 C   0  0  0  0  0  0  0  0  0  0  0  0
    4.3442    0.3621   -0.5086 C   0  0  0  0  0  0  0  0  0  0  0  0
    5.1354    1.6818   -1.2940 S   0  0  0  0  0  0  0  0  0  0  0  0
    6.6501    0.8621   -1.3588 C   0  0  0  0  0  0  0  0  0  0  0  0
    6.4909   -0.3531   -0.7893 C   0  0  0  0  0  0  0  0  0  0  0  0
    7.3690   -1.4394   -0.5611 C   0  0  0  0  0  0  0  0  0  0  0  0
    6.7350   -2.5122    0.0767 C   0  0  0  0  0  0  0  0  0  0  0  0
    5.0294   -2.3004    0.4532 S   0  0  0  0  0  0  0  0  0  0  0  0
    5.2224   -0.6696   -0.3027 C   0  0  0  0  0  0  0  0  0  0  0  0
    2.5004    0.1670    4.2680 H   0  0  0  0  0  0  0  0  0  0  0  0
    2.4148    1.9308    3.9811 H   0  0  0  0  0  0  0  0  0  0  0  0
    4.2955    0.8602    2.4027 H   0  0  0  0  0  0  0  0  0  0  0  0
    2.3571    0.0242   -2.1167 H   0  0  0  0  0  0  0  0  0  0  0  0
    0.1219   -0.1869   -2.8909 H   0  0  0  0  0  0  0  0  0  0  0  0
   -2.2648   -0.2438   -2.5570 H   0  0  0  0  0  0  0  0  0  0  0  0
   -4.9568    0.5337    3.2023 H   0  0  0  0  0  0  0  0  0  0  0  0
   -7.0792    0.2459    1.9935 H   0  0  0  0  0  0  0  0  0  0  0  0
   -8.2600   -0.1736   -0.3430 H   0  0  0  0  0  0  0  0  0  0  0  0
   -7.1835   -1.8033   -2.9672 H   0  0  0  0  0  0  0  0  0  0  0  0
   -7.2990    0.6725   -3.3531 H   0  0  0  0  0  0  0  0  0  0  0  0
   -4.2898   -0.3770   -2.8365 H   0  0  0  0  0  0  0  0  0  0  0  0
    0.0613    0.8339    3.4937 H   0  0  0  0  0  0  0  0  0  0  0  0
    7.5244    1.3213   -1.7977 H   0  0  0  0  0  0  0  0  0  0  0  0
    8.4158   -1.4647   -0.8381 H   0  0  0  0  0  0  0  0  0  0  0  0
    7.1850   -3.4541    0.3597 H   0  0  0  0  0  0  0  0  0  0  0  0
  1  2  1  0
  2  3  2  0
  3  4  1  0
  4  5  2  0
  5  6  1  0
  6  7  2  0
  7  8  1  0
  8  9  2  0
  9 10  1  0
 10 11  1  0
 11 12  1  0
 12 13  1  0
 13 14  2  0
 14 15  1  0
 15 16  2  0
 16 17  1  0
 17 18  1  0
 18 19  2  0
 19 20  1  0
 10 21  2  0
 21 22  1  0
 22 23  2  0
  4 24  1  0
 24 25  1  0
 25 26  1  0
 26 27  2  0
 27 28  1  0
 28 29  2  0
 29 30  1  0
 30 31  1  0
 23  1  1  0
 31 24  2  0
 22  3  1  0
 31 27  1  0
 21  6  1  0
 20  9  1  0
 20 12  2  0
 19 15  1  0
  1 32  1  0
  1 33  1  0
  2 34  1  0
  5 35  1  0
  7 36  1  0
  8 37  1  0
 13 38  1  0
 14 39  1  0
 16 40  1  0
 17 41  1  0
 17 42  1  0
 18 43  1  0
 23 44  1  0
 26 45  1  0
 28 46  1  0
 29 47  1  0
M  END
