
     RDKit          3D

 43 49  0  0  0  0  0  0  0  0999 V2000
    0.5876    0.8056   -3.2336 C   0  0  0  0  0  0  0  0  0  0  0  0
    1.6245    0.2418   -2.3077 C   0  0  0  0  0  0  0  0  0  0  0  0
    1.0443   -0.1485   -1.1610 C   0  0  0  0  0  0  0  0  0  0  0  0
    1.6519   -0.7525    0.0187 C   0  0  0  0  0  0  0  0  0  0  0  0
    0.8401   -1.0700    1.0557 C   0  0  0  0  0  0  0  0  0  0  0  0
   -0.6292   -0.8363    1.0328 C   0  0  0  0  0  0  0  0  0  0  0  0
   -1.4030   -1.2003    2.1423 C   0  0  0  0  0  0  0  0  0  0  0  0
   -2.7901   -0.9907    2.1616 C   0  0  0  0  0  0  0  0  0  0  0  0
   -3.4076   -0.4036    1.0447 C   0  0  0  0  0  0  0  0  0  0  0  0
   -4.7105   -0.0416    0.6872 C   0  0  0  0  0  0  0  0  0  0  0  0
   -6.1046   -0.0367    1.1760 C   0  0  0  0  0  0  0  0  0  0  0  0
   -6.8065    0.6059   -0.0370 C   0  0  0  0  0  0  0  0  0  0  0  0
   -5.9376    0.9055   -1.0321 C   0  0  0  0  0  0  0  0  0  0  0  0
   -4.6694    0.5042   -0.5722 C   0  0  0  0  0  0  0  0  0  0  0  0
   -3.4086    0.5149   -1.0492 O   0  0  0  0  0  0  0  0  0  0  0  0
   -2.6221   -0.0422   -0.0631 C   0  0  0  0  0  0  0  0  0  0  0  0
   -1.2400   -0.2433   -0.1028 C   0  0  0  0  0  0  0  0  0  0  0  0
   -0.3915    0.1156   -1.2390 C   0  0  0  0  0  0  0  0  0  0  0  0
   -0.6716    0.6699   -2.4294 C   0  0  0  0  0  0  0  0  0  0  0  0
    3.0508   -0.9917    0.1814 C   0  0  0  0  0  0  0  0  0  0  0  0
    3.7050   -2.5990    0.0570 S   0  0  0  0  0  0  0  0  0  0  0  0
    5.3266   -2.0711    0.3362 C   0  0  0  0  0  0  0  0  0  0  0  0
    5.3699   -0.7155    0.5119 C   0  0  0  0  0  0  0  0  0  0  0  0
    6.4729    0.1597    0.7646 C   0  0  0  0  0  0  0  0  0  0  0  0
    6.1450    1.4650    0.8853 C   0  0  0  0  0  0  0  0  0  0  0  0
    4.2538    1.7339    0.6720 Si  0  0  0  0  0  4  0  0  0  0  0  0
    4.0826   -0.1267    0.4181 C   0  0  0  0  0  0  0  0  0  0  0  0
    0.7956    1.8539   -3.4668 H   0  0  0  0  0  0  0  0  0  0  0  0
    0.5284    0.2257   -4.1592 H   0  0  0  0  0  0  0  0  0  0  0  0
    2.6736    0.1629   -2.5498 H   0  0  0  0  0  0  0  0  0  0  0  0
    1.2466   -1.5086    1.9634 H   0  0  0  0  0  0  0  0  0  0  0  0
   -0.9344   -1.6558    3.0126 H   0  0  0  0  0  0  0  0  0  0  0  0
   -3.3742   -1.2802    3.0304 H   0  0  0  0  0  0  0  0  0  0  0  0
   -6.2284    0.5835    2.0678 H   0  0  0  0  0  0  0  0  0  0  0  0
   -6.4848   -1.0464    1.3528 H   0  0  0  0  0  0  0  0  0  0  0  0
   -7.8709    0.7879   -0.0710 H   0  0  0  0  0  0  0  0  0  0  0  0
   -6.1477    1.3575   -1.9882 H   0  0  0  0  0  0  0  0  0  0  0  0
   -1.6451    0.9732   -2.7824 H   0  0  0  0  0  0  0  0  0  0  0  0
    6.1359   -2.7872    0.3503 H   0  0  0  0  0  0  0  0  0  0  0  0
    7.4892   -0.2070    0.8507 H   0  0  0  0  0  0  0  0  0  0  0  0
    6.8012    2.2988    1.0747 H   0  0  0  0  0  0  0  0  0  0  0  0
    3.6627    2.2401    1.9363 H   0  0  0  0  0  0  0  0  0  0  0  0
    3.9897    2.5494   -0.5401 H   0  0  0  0  0  0  0  0  0  0  0  0
  1  2  1  0
  2  3  2  0
  3  4  1  0
  4  5  2  0
  5  6  1  0
  6  7  2  0
  7  8  1  0
  8  9  2  0
  9 10  1  0
 10 11  1  0
 11 12  1  0
 12 13  2  0
 13 14  1  0
 14 15  1  0
 15 16  1  0
 16 17  2  0
 17 18  1  0
 18 19  2  0
  4 20  1  0
 20 21  1  0
 21 22  1  0
 22 23  2  0
 23 24  1  0
 24 25  2  0
 25 26  1  0
 26 27  1  0
 19  1  1  0
 27 20  2  0
 18  3  1  0
 27 23  1  0
 17  6  1  0
 16  9  1  0
 14 10  2  0
  1 28  1  0
  1 29  1  0
  2 30  1  0
  5 31  1  0
  7 32  1  0
  8 33  1  0
 11 34  1  0
 11 35  1  0
 12 36  1  0
 13 37  1  0
 19 38  1  0
 22 39  1  0
 24 40  1  0
 25 41  1  0
 26 42  1  0
 26 43  1  0
M  END
