
     RDKit          3D

 42 48  0  0  0  0  0  0  0  0999 V2000
   -1.9138   -3.7860   -0.4516 Si  0  0  0  0  0  4  0  0  0  0  0  0
   -2.9170   -2.2606   -0.1356 C   0  0  0  0  0  0  0  0  0  0  0  0
   -2.1378   -1.1716    0.0401 C   0  0  0  0  0  0  0  0  0  0  0  0
   -2.6593    0.1936    0.1318 C   0  0  0  0  0  0  0  0  0  0  0  0
   -1.7754    1.2117    0.0772 C   0  0  0  0  0  0  0  0  0  0  0  0
   -0.3274    0.9775    0.0477 C   0  0  0  0  0  0  0  0  0  0  0  0
    0.5980    2.0154   -0.0256 C   0  0  0  0  0  0  0  0  0  0  0  0
    0.3434    3.3526   -0.1981 C   0  0  0  0  0  0  0  0  0  0  0  0
    1.5148    4.0441   -0.2276 O   0  0  0  0  0  0  0  0  0  0  0  0
    2.5238    3.1393   -0.0639 C   0  0  0  0  0  0  0  0  0  0  0  0
    2.0178    1.8670    0.0636 C   0  0  0  0  0  0  0  0  0  0  0  0
    2.6849    0.6482    0.2952 C   0  0  0  0  0  0  0  0  0  0  0  0
    4.0915    0.4689    0.4432 C   0  0  0  0  0  0  0  0  0  0  0  0
    5.3952    1.6015    0.2776 S   0  0  0  0  0  0  0  0  0  0  0  0
    6.5900    0.4511    0.6347 C   0  0  0  0  0  0  0  0  0  0  0  0
    6.0450   -0.7807    0.8875 C   0  0  0  0  0  0  0  0  0  0  0  0
    4.6132   -0.7889    0.7781 C   0  0  0  0  0  0  0  0  0  0  0  0
    3.7138   -1.8505    0.9863 C   0  0  0  0  0  0  0  0  0  0  0  0
    2.3362   -1.6707    0.8121 C   0  0  0  0  0  0  0  0  0  0  0  0
    1.7570   -0.4590    0.4057 C   0  0  0  0  0  0  0  0  0  0  0  0
    0.3057   -0.3040    0.1703 C   0  0  0  0  0  0  0  0  0  0  0  0
   -0.6692   -1.4417    0.0056 C   0  0  0  0  0  0  0  0  0  0  0  0
   -0.3841   -2.7173   -0.3396 C   0  0  0  0  0  0  0  0  0  0  0  0
   -4.0443    0.5510    0.2156 C   0  0  0  0  0  0  0  0  0  0  0  0
   -4.8650    1.0981   -0.7569 C   0  0  0  0  0  0  0  0  0  0  0  0
   -6.1950    1.3230   -0.2974 C   0  0  0  0  0  0  0  0  0  0  0  0
   -6.3552    0.9442    1.0154 C   0  0  0  0  0  0  0  0  0  0  0  0
   -4.9116    0.3222    1.6862 S   0  0  0  0  0  0  0  0  0  0  0  0
   -2.1128   -4.3364   -1.8138 H   0  0  0  0  0  0  0  0  0  0  0  0
   -1.9871   -4.7706    0.6544 H   0  0  0  0  0  0  0  0  0  0  0  0
   -3.9944   -2.2883   -0.1856 H   0  0  0  0  0  0  0  0  0  0  0  0
   -2.1225    2.2391    0.1208 H   0  0  0  0  0  0  0  0  0  0  0  0
   -0.5463    3.9542   -0.3183 H   0  0  0  0  0  0  0  0  0  0  0  0
    3.5063    3.5851   -0.0562 H   0  0  0  0  0  0  0  0  0  0  0  0
    7.6350    0.7290    0.6482 H   0  0  0  0  0  0  0  0  0  0  0  0
    6.6400   -1.6489    1.1433 H   0  0  0  0  0  0  0  0  0  0  0  0
    4.0871   -2.8244    1.2955 H   0  0  0  0  0  0  0  0  0  0  0  0
    1.7151   -2.5239    1.0681 H   0  0  0  0  0  0  0  0  0  0  0  0
    0.5692   -3.1589   -0.5719 H   0  0  0  0  0  0  0  0  0  0  0  0
   -4.5214    1.3223   -1.7599 H   0  0  0  0  0  0  0  0  0  0  0  0
   -6.9920    1.7410   -0.8999 H   0  0  0  0  0  0  0  0  0  0  0  0
   -7.2515    1.0022    1.6174 H   0  0  0  0  0  0  0  0  0  0  0  0
  1  2  1  0
  2  3  2  0
  3  4  1  0
  4  5  2  0
  5  6  1  0
  6  7  1  0
  7  8  2  0
  8  9  1  0
  9 10  1  0
 10 11  2  0
 11 12  1  0
 12 13  2  0
 13 14  1  0
 14 15  1  0
 15 16  2  0
 16 17  1  0
 17 18  2  0
 18 19  1  0
 19 20  2  0
 20 21  1  0
 21 22  1  0
 22 23  2  0
  4 24  1  0
 24 25  2  0
 25 26  1  0
 26 27  2  0
 27 28  1  0
 23  1  1  0
 28 24  1  0
 22  3  1  0
 21  6  2  0
 11  7  1  0
 20 12  1  0
 17 13  1  0
  1 29  1  0
  1 30  1  0
  2 31  1  0
  5 32  1  0
  8 33  1  0
 10 34  1  0
 15 35  1  0
 16 36  1  0
 18 37  1  0
 19 38  1  0
 23 39  1  0
 25 40  1  0
 26 41  1  0
 27 42  1  0
M  END
