
     RDKit          3D

 33 37  0  0  0  0  0  0  0  0999 V2000
    0.5442    1.4293    2.9427 C   0  0  0  0  0  0  0  0  0  0  0  0
    1.6416    1.0321    2.0090 C   0  0  0  0  0  0  0  0  0  0  0  0
    1.1175    0.4974    0.8941 C   0  0  0  0  0  0  0  0  0  0  0  0
    1.8176   -0.0312   -0.2685 C   0  0  0  0  0  0  0  0  0  0  0  0
    1.0702   -0.5573   -1.2651 C   0  0  0  0  0  0  0  0  0  0  0  0
   -0.4151   -0.5977   -1.2268 C   0  0  0  0  0  0  0  0  0  0  0  0
   -1.0948   -1.1565   -2.3117 C   0  0  0  0  0  0  0  0  0  0  0  0
   -2.4906   -1.2116   -2.3282 C   0  0  0  0  0  0  0  0  0  0  0  0
   -3.2232   -0.6951   -1.2431 C   0  0  0  0  0  0  0  0  0  0  0  0
   -4.6171   -0.6041   -0.9751 C   0  0  0  0  0  0  0  0  0  0  0  0
   -4.7660    0.0034    0.2465 C   0  0  0  0  0  0  0  0  0  0  0  0
   -3.5147    0.2827    0.7265 N   0  0  0  0  0  0  0  0  0  0  0  0
   -2.5401   -0.1341   -0.1548 C   0  0  0  0  0  0  0  0  0  0  0  0
   -1.1328   -0.0746   -0.1141 C   0  0  0  0  0  0  0  0  0  0  0  0
   -0.3473    0.4888    0.9980 C   0  0  0  0  0  0  0  0  0  0  0  0
   -0.6871    1.0266    2.1828 C   0  0  0  0  0  0  0  0  0  0  0  0
    3.2346   -0.0521   -0.4406 C   0  0  0  0  0  0  0  0  0  0  0  0
    4.1234   -1.1139   -0.3899 C   0  0  0  0  0  0  0  0  0  0  0  0
    5.4545   -0.8125   -0.6101 N   0  0  0  0  0  0  0  0  0  0  0  0
    5.5693    0.4782   -0.8265 C   0  0  0  0  0  0  0  0  0  0  0  0
    4.1195    1.3897   -0.7806 S   0  0  0  0  0  0  0  0  0  0  0  0
    0.6159    0.8873    3.8902 H   0  0  0  0  0  0  0  0  0  0  0  0
    0.5555    2.5066    3.1319 H   0  0  0  0  0  0  0  0  0  0  0  0
    2.6916    1.1614    2.2239 H   0  0  0  0  0  0  0  0  0  0  0  0
    1.5400   -0.9657   -2.1564 H   0  0  0  0  0  0  0  0  0  0  0  0
   -0.5491   -1.5571   -3.1627 H   0  0  0  0  0  0  0  0  0  0  0  0
   -3.0074   -1.6488   -3.1781 H   0  0  0  0  0  0  0  0  0  0  0  0
   -5.4210   -0.9465   -1.6134 H   0  0  0  0  0  0  0  0  0  0  0  0
   -5.6495    0.2630    0.8139 H   0  0  0  0  0  0  0  0  0  0  0  0
   -3.3400    0.7386    1.6069 H   0  0  0  0  0  0  0  0  0  0  0  0
   -1.6686    1.1693    2.5945 H   0  0  0  0  0  0  0  0  0  0  0  0
    3.8446   -2.1422   -0.1911 H   0  0  0  0  0  0  0  0  0  0  0  0
    6.5243    0.9470   -1.0241 H   0  0  0  0  0  0  0  0  0  0  0  0
  1  2  1  0
  2  3  2  0
  3  4  1  0
  4  5  2  0
  5  6  1  0
  6  7  2  0
  7  8  1  0
  8  9  2  0
  9 10  1  0
 10 11  2  0
 11 12  1  0
 12 13  1  0
 13 14  2  0
 14 15  1  0
 15 16  2  0
  4 17  1  0
 17 18  2  0
 18 19  1  0
 19 20  2  0
 20 21  1  0
 16  1  1  0
 21 17  1  0
 15  3  1  0
 14  6  1  0
 13  9  1  0
  1 22  1  0
  1 23  1  0
  2 24  1  0
  5 25  1  0
  7 26  1  0
  8 27  1  0
 10 28  1  0
 11 29  1  0
 12 30  1  0
 16 31  1  0
 18 32  1  0
 20 33  1  0
M  END
