
     RDKit          3D

 45 51  0  0  0  0  0  0  0  0999 V2000
    1.7794   -0.4645   -3.3430 C   0  0  0  0  0  0  0  0  0  0  0  0
    2.8269   -0.4059   -2.2772 C   0  0  0  0  0  0  0  0  0  0  0  0
    2.2490   -0.2259   -1.0777 C   0  0  0  0  0  0  0  0  0  0  0  0
    2.8924    0.0664    0.2011 C   0  0  0  0  0  0  0  0  0  0  0  0
    2.0706    0.5110    1.1789 C   0  0  0  0  0  0  0  0  0  0  0  0
    0.5983    0.5909    1.0429 C   0  0  0  0  0  0  0  0  0  0  0  0
   -0.0242    1.1131    2.1200 N   0  0  0  0  0  0  0  0  0  0  0  0
   -1.3797    1.1380    2.1009 C   0  0  0  0  0  0  0  0  0  0  0  0
   -2.2019    0.5867    1.1191 C   0  0  0  0  0  0  0  0  0  0  0  0
   -3.6382    0.6547    1.2983 C   0  0  0  0  0  0  0  0  0  0  0  0
   -4.1640    1.3222    2.3501 N   0  0  0  0  0  0  0  0  0  0  0  0
   -5.5092    1.3862    2.5142 C   0  0  0  0  0  0  0  0  0  0  0  0
   -6.4268    0.7982    1.6670 C   0  0  0  0  0  0  0  0  0  0  0  0
   -5.9377    0.0947    0.5815 C   0  0  0  0  0  0  0  0  0  0  0  0
   -4.5398    0.0241    0.3946 C   0  0  0  0  0  0  0  0  0  0  0  0
   -3.8633   -0.6748   -0.6194 C   0  0  0  0  0  0  0  0  0  0  0  0
   -4.4137   -1.4806   -1.5822 C   0  0  0  0  0  0  0  0  0  0  0  0
   -3.4189   -2.0758   -2.2989 O   0  0  0  0  0  0  0  0  0  0  0  0
   -2.2316   -1.6350   -1.7880 C   0  0  0  0  0  0  0  0  0  0  0  0
   -2.4490   -0.7086   -0.7976 C   0  0  0  0  0  0  0  0  0  0  0  0
   -1.4985   -0.0261    0.0130 C   0  0  0  0  0  0  0  0  0  0  0  0
   -0.0770    0.0903   -0.0855 C   0  0  0  0  0  0  0  0  0  0  0  0
    0.7913   -0.1942   -1.2439 C   0  0  0  0  0  0  0  0  0  0  0  0
    0.5181   -0.2580   -2.5586 C   0  0  0  0  0  0  0  0  0  0  0  0
    4.3188   -0.0276    0.4554 C   0  0  0  0  0  0  0  0  0  0  0  0
    5.1413   -1.0299    0.0990 C   0  0  0  0  0  0  0  0  0  0  0  0
    6.4843   -0.7358    0.5266 C   0  0  0  0  0  0  0  0  0  0  0  0
    6.5024    0.4482    1.1534 C   0  0  0  0  0  0  0  0  0  0  0  0
    5.1158    1.0276    1.1852 C   0  0  0  0  0  0  0  0  0  0  0  0
    1.9204    0.3378   -4.0733 H   0  0  0  0  0  0  0  0  0  0  0  0
    1.7782   -1.4322   -3.8525 H   0  0  0  0  0  0  0  0  0  0  0  0
    3.8871   -0.4155   -2.4800 H   0  0  0  0  0  0  0  0  0  0  0  0
    2.4424    0.7826    2.1617 H   0  0  0  0  0  0  0  0  0  0  0  0
   -1.8081    1.6176    2.9811 H   0  0  0  0  0  0  0  0  0  0  0  0
   -5.8361    1.9479    3.3857 H   0  0  0  0  0  0  0  0  0  0  0  0
   -7.4912    0.8828    1.8533 H   0  0  0  0  0  0  0  0  0  0  0  0
   -6.6243   -0.3912   -0.1041 H   0  0  0  0  0  0  0  0  0  0  0  0
   -5.4180   -1.7686   -1.8592 H   0  0  0  0  0  0  0  0  0  0  0  0
   -1.3608   -2.0999   -2.2260 H   0  0  0  0  0  0  0  0  0  0  0  0
   -0.4412   -0.1220   -3.0317 H   0  0  0  0  0  0  0  0  0  0  0  0
    4.8643   -1.9321   -0.4257 H   0  0  0  0  0  0  0  0  0  0  0  0
    7.3311   -1.3834    0.3571 H   0  0  0  0  0  0  0  0  0  0  0  0
    7.3730    0.9225    1.5803 H   0  0  0  0  0  0  0  0  0  0  0  0
    5.0839    1.9879    0.6609 H   0  0  0  0  0  0  0  0  0  0  0  0
    4.7841    1.1566    2.2199 H   0  0  0  0  0  0  0  0  0  0  0  0
  1  2  1  0
  2  3  2  0
  3  4  1  0
  4  5  2  0
  5  6  1  0
  6  7  2  0
  7  8  1  0
  8  9  2  0
  9 10  1  0
 10 11  2  0
 11 12  1  0
 12 13  2  0
 13 14  1  0
 14 15  2  0
 15 16  1  0
 16 17  2  0
 17 18  1  0
 18 19  1  0
 19 20  2  0
 20 21  1  0
 21 22  2  0
 22 23  1  0
 23 24  2  0
  4 25  1  0
 25 26  2  0
 26 27  1  0
 27 28  2  0
 28 29  1  0
 24  1  1  0
 29 25  1  0
 23  3  1  0
 22  6  1  0
 21  9  1  0
 15 10  1  0
 20 16  1  0
  1 30  1  0
  1 31  1  0
  2 32  1  0
  5 33  1  0
  8 34  1  0
 12 35  1  0
 13 36  1  0
 14 37  1  0
 17 38  1  0
 19 39  1  0
 24 40  1  0
 26 41  1  0
 27 42  1  0
 28 43  1  0
 29 44  1  0
 29 45  1  0
M  END
