
     RDKit          3D

 43 49  0  0  0  0  0  0  0  0999 V2000
   -1.2142   -0.2621   -3.5208 C   0  0  0  0  0  0  0  0  0  0  0  0
   -2.1273    0.3233   -2.4880 C   0  0  0  0  0  0  0  0  0  0  0  0
   -1.4800    0.4344   -1.3163 C   0  0  0  0  0  0  0  0  0  0  0  0
   -1.9713    0.9404   -0.0424 C   0  0  0  0  0  0  0  0  0  0  0  0
   -1.1148    0.9007    1.0025 C   0  0  0  0  0  0  0  0  0  0  0  0
    0.2704    0.3934    0.8957 C   0  0  0  0  0  0  0  0  0  0  0  0
    0.9633    0.4449    2.0511 N   0  0  0  0  0  0  0  0  0  0  0  0
    2.2360    0.0018    2.0095 C   0  0  0  0  0  0  0  0  0  0  0  0
    2.8704   -0.4967    0.8719 C   0  0  0  0  0  0  0  0  0  0  0  0
    4.2037   -0.9380    0.9163 C   0  0  0  0  0  0  0  0  0  0  0  0
    4.9286   -0.8988    2.0616 N   0  0  0  0  0  0  0  0  0  0  0  0
    6.2087   -1.3357    2.0487 C   0  0  0  0  0  0  0  0  0  0  0  0
    6.8388   -1.8289    0.9254 C   0  0  0  0  0  0  0  0  0  0  0  0
    6.1097   -1.8752   -0.2533 C   0  0  0  0  0  0  0  0  0  0  0  0
    4.7786   -1.4268   -0.2639 C   0  0  0  0  0  0  0  0  0  0  0  0
    3.9960   -1.4462   -1.4067 C   0  0  0  0  0  0  0  0  0  0  0  0
    2.7165   -1.0239   -1.4517 N   0  0  0  0  0  0  0  0  0  0  0  0
    2.1349   -0.5466   -0.3289 C   0  0  0  0  0  0  0  0  0  0  0  0
    0.8059   -0.0921   -0.3147 C   0  0  0  0  0  0  0  0  0  0  0  0
   -0.1149   -0.0750   -1.4720 C   0  0  0  0  0  0  0  0  0  0  0  0
    0.0495   -0.4767   -2.7441 C   0  0  0  0  0  0  0  0  0  0  0  0
   -3.2739    1.4685    0.2042 C   0  0  0  0  0  0  0  0  0  0  0  0
   -3.8357    2.9297   -0.5867 S   0  0  0  0  0  0  0  0  0  0  0  0
   -5.3816    2.9117    0.2038 C   0  0  0  0  0  0  0  0  0  0  0  0
   -5.4156    1.8391    1.0177 C   0  0  0  0  0  0  0  0  0  0  0  0
   -6.4445    1.4547    1.8266 N   0  0  0  0  0  0  0  0  0  0  0  0
   -5.9135    0.3065    2.4120 C   0  0  0  0  0  0  0  0  0  0  0  0
   -4.6075    0.0415    1.9458 C   0  0  0  0  0  0  0  0  0  0  0  0
   -4.2790    1.0643    1.0180 C   0  0  0  0  0  0  0  0  0  0  0  0
   -1.0557    0.4345   -4.3490 H   0  0  0  0  0  0  0  0  0  0  0  0
   -1.6069   -1.2085   -3.9038 H   0  0  0  0  0  0  0  0  0  0  0  0
   -3.1518    0.6031   -2.6810 H   0  0  0  0  0  0  0  0  0  0  0  0
   -1.3986    1.2586    1.9883 H   0  0  0  0  0  0  0  0  0  0  0  0
    2.7594    0.0615    2.9625 H   0  0  0  0  0  0  0  0  0  0  0  0
    6.7272   -1.2742    3.0017 H   0  0  0  0  0  0  0  0  0  0  0  0
    7.8679   -2.1672    0.9669 H   0  0  0  0  0  0  0  0  0  0  0  0
    6.5764   -2.2585   -1.1574 H   0  0  0  0  0  0  0  0  0  0  0  0
    4.3821   -1.8130   -2.3543 H   0  0  0  0  0  0  0  0  0  0  0  0
    0.9426   -0.9038   -3.1734 H   0  0  0  0  0  0  0  0  0  0  0  0
   -6.1335    3.6667    0.0247 H   0  0  0  0  0  0  0  0  0  0  0  0
   -7.3435    1.9038    1.9504 H   0  0  0  0  0  0  0  0  0  0  0  0
   -6.5135   -0.2428    3.1263 H   0  0  0  0  0  0  0  0  0  0  0  0
   -3.9893   -0.7924    2.2518 H   0  0  0  0  0  0  0  0  0  0  0  0
  1  2  1  0
  2  3  2  0
  3  4  1  0
  4  5  2  0
  5  6  1  0
  6  7  2  0
  7  8  1  0
  8  9  2  0
  9 10  1  0
 10 11  2  0
 11 12  1  0
 12 13  2  0
 13 14  1  0
 14 15  2  0
 15 16  1  0
 16 17  2  0
 17 18  1  0
 18 19  2  0
 19 20  1  0
 20 21  2  0
  4 22  1  0
 22 23  1  0
 23 24  1  0
 24 25  2  0
 25 26  1  0
 26 27  1  0
 27 28  2  0
 28 29  1  0
 21  1  1  0
 29 22  2  0
 20  3  1  0
 29 25  1  0
 19  6  1  0
 18  9  1  0
 15 10  1  0
  1 30  1  0
  1 31  1  0
  2 32  1  0
  5 33  1  0
  8 34  1  0
 12 35  1  0
 13 36  1  0
 14 37  1  0
 16 38  1  0
 21 39  1  0
 24 40  1  0
 26 41  1  0
 27 42  1  0
 28 43  1  0
M  END
