
     RDKit          3D

 46 53  0  0  0  0  0  0  0  0999 V2000
   -2.0631   -2.3502   -2.6986 C   0  0  0  0  0  0  0  0  0  0  0  0
   -2.7841   -1.2946   -1.9059 C   0  0  0  0  0  0  0  0  0  0  0  0
   -1.9012   -0.5823   -1.1860 C   0  0  0  0  0  0  0  0  0  0  0  0
   -2.1292    0.5505   -0.2711 C   0  0  0  0  0  0  0  0  0  0  0  0
   -1.0506    1.1125    0.3379 C   0  0  0  0  0  0  0  0  0  0  0  0
    0.2573    0.5891    0.0636 C   0  0  0  0  0  0  0  0  0  0  0  0
    1.4347    1.0589    0.6072 O   0  0  0  0  0  0  0  0  0  0  0  0
    2.4092    0.2733    0.0733 C   0  0  0  0  0  0  0  0  0  0  0  0
    1.8962   -0.6599   -0.7717 C   0  0  0  0  0  0  0  0  0  0  0  0
    2.9403   -1.4182   -1.2742 N   0  0  0  0  0  0  0  0  0  0  0  0
    4.1311   -0.9520   -0.7328 C   0  0  0  0  0  0  0  0  0  0  0  0
    5.4853   -1.3461   -0.8907 C   0  0  0  0  0  0  0  0  0  0  0  0
    6.5193   -0.6648   -0.1898 C   0  0  0  0  0  0  0  0  0  0  0  0
    6.0583    0.3752    0.6212 C   0  0  0  0  0  0  0  0  0  0  0  0
    6.8314    1.1976    1.4063 C   0  0  0  0  0  0  0  0  0  0  0  0
    5.9797    2.0911    2.0446 N   0  0  0  0  0  0  0  0  0  0  0  0
    4.6670    1.8551    1.6815 C   0  0  0  0  0  0  0  0  0  0  0  0
    4.7383    0.8092    0.8167 C   0  0  0  0  0  0  0  0  0  0  0  0
    3.7721    0.0940    0.0962 C   0  0  0  0  0  0  0  0  0  0  0  0
    0.5115   -0.4782   -0.7942 C   0  0  0  0  0  0  0  0  0  0  0  0
   -0.5583   -1.1085   -1.4555 C   0  0  0  0  0  0  0  0  0  0  0  0
   -0.6253   -2.1267   -2.3201 C   0  0  0  0  0  0  0  0  0  0  0  0
   -3.4179    1.0784    0.0504 C   0  0  0  0  0  0  0  0  0  0  0  0
   -3.8995    2.6682   -0.4767 S   0  0  0  0  0  0  0  0  0  0  0  0
   -5.4675    2.5453    0.2383 C   0  0  0  0  0  0  0  0  0  0  0  0
   -5.6190    1.3321    0.8485 C   0  0  0  0  0  0  0  0  0  0  0  0
   -6.6757    0.6118    1.6142 C   0  0  0  0  0  0  0  0  0  0  0  0
   -5.9563   -0.7081    1.9089 C   0  0  0  0  0  0  0  0  0  0  0  0
   -4.7067   -0.7135    1.3910 C   0  0  0  0  0  0  0  0  0  0  0  0
   -4.4658    0.5211    0.7330 C   0  0  0  0  0  0  0  0  0  0  0  0
   -2.3944   -3.3522   -2.4105 H   0  0  0  0  0  0  0  0  0  0  0  0
   -2.2136   -2.2059   -3.7725 H   0  0  0  0  0  0  0  0  0  0  0  0
   -3.8531   -1.1436   -1.9300 H   0  0  0  0  0  0  0  0  0  0  0  0
   -1.1335    1.9386    1.0356 H   0  0  0  0  0  0  0  0  0  0  0  0
    2.8199   -2.1799   -1.9277 H   0  0  0  0  0  0  0  0  0  0  0  0
    5.7419   -2.1721   -1.5492 H   0  0  0  0  0  0  0  0  0  0  0  0
    7.5609   -0.9410   -0.2890 H   0  0  0  0  0  0  0  0  0  0  0  0
    7.8974    1.2451    1.5807 H   0  0  0  0  0  0  0  0  0  0  0  0
    6.2791    2.8138    2.6856 H   0  0  0  0  0  0  0  0  0  0  0  0
    3.8491    2.4456    2.0707 H   0  0  0  0  0  0  0  0  0  0  0  0
    0.2033   -2.7017   -2.7001 H   0  0  0  0  0  0  0  0  0  0  0  0
   -6.1699    3.3634    0.1623 H   0  0  0  0  0  0  0  0  0  0  0  0
   -7.5709    0.4402    1.0102 H   0  0  0  0  0  0  0  0  0  0  0  0
   -6.9316    1.1307    2.5421 H   0  0  0  0  0  0  0  0  0  0  0  0
   -6.4032   -1.5191    2.4642 H   0  0  0  0  0  0  0  0  0  0  0  0
   -3.9927   -1.5222    1.4621 H   0  0  0  0  0  0  0  0  0  0  0  0
  1  2  1  0
  2  3  2  0
  3  4  1  0
  4  5  2  0
  5  6  1  0
  6  7  1  0
  7  8  1  0
  8  9  2  0
  9 10  1  0
 10 11  1  0
 11 12  1  0
 12 13  2  0
 13 14  1  0
 14 15  2  0
 15 16  1  0
 16 17  1  0
 17 18  2  0
 18 19  1  0
  9 20  1  0
 20 21  1  0
 21 22  2  0
  4 23  1  0
 23 24  1  0
 24 25  1  0
 25 26  2  0
 26 27  1  0
 27 28  1  0
 28 29  2  0
 29 30  1  0
 22  1  1  0
 30 23  2  0
 21  3  1  0
 30 26  1  0
 20  6  2  0
 19  8  1  0
 19 11  2  0
 18 14  1  0
  1 31  1  0
  1 32  1  0
  2 33  1  0
  5 34  1  0
 10 35  1  0
 12 36  1  0
 13 37  1  0
 15 38  1  0
 16 39  1  0
 17 40  1  0
 22 41  1  0
 25 42  1  0
 27 43  1  0
 27 44  1  0
 28 45  1  0
 29 46  1  0
M  END
