
     RDKit          3D

 43 49  0  0  0  0  0  0  0  0999 V2000
    2.6326   -1.8321   -0.2138 Si  0  0  0  0  0  4  0  0  0  0  0  0
    3.8710   -0.4038   -0.0211 C   0  0  0  0  0  0  0  0  0  0  0  0
    3.2582    0.7807    0.2023 C   0  0  0  0  0  0  0  0  0  0  0  0
    1.7985    0.6713    0.2527 C   0  0  0  0  0  0  0  0  0  0  0  0
    1.2540   -0.6185    0.0521 C   0  0  0  0  0  0  0  0  0  0  0  0
   -0.1316   -0.8523    0.0831 C   0  0  0  0  0  0  0  0  0  0  0  0
   -0.8716   -2.0054    0.0036 N   0  0  0  0  0  0  0  0  0  0  0  0
   -2.2233   -1.7377    0.0819 C   0  0  0  0  0  0  0  0  0  0  0  0
   -3.2844   -2.6467    0.1180 C   0  0  0  0  0  0  0  0  0  0  0  0
   -4.5810   -2.1374    0.1339 C   0  0  0  0  0  0  0  0  0  0  0  0
   -4.8246   -0.7675    0.0191 C   0  0  0  0  0  0  0  0  0  0  0  0
   -6.1445   -0.2951   -0.0642 C   0  0  0  0  0  0  0  0  0  0  0  0
   -6.4107    1.0564   -0.2798 C   0  0  0  0  0  0  0  0  0  0  0  0
   -5.3593    1.9488   -0.4433 C   0  0  0  0  0  0  0  0  0  0  0  0
   -4.0406    1.4985   -0.3468 C   0  0  0  0  0  0  0  0  0  0  0  0
   -3.7407    0.1497   -0.0560 C   0  0  0  0  0  0  0  0  0  0  0  0
   -2.3983   -0.3443    0.0944 C   0  0  0  0  0  0  0  0  0  0  0  0
   -1.0773    0.1562    0.2555 C   0  0  0  0  0  0  0  0  0  0  0  0
   -0.5617    1.4721    0.5839 C   0  0  0  0  0  0  0  0  0  0  0  0
   -1.2635    2.5397    1.0637 C   0  0  0  0  0  0  0  0  0  0  0  0
   -0.2054    3.8766    1.3059 S   0  0  0  0  0  0  0  0  0  0  0  0
    1.1817    2.9504    0.8704 C   0  0  0  0  0  0  0  0  0  0  0  0
    0.8551    1.6530    0.5406 C   0  0  0  0  0  0  0  0  0  0  0  0
    5.2806   -0.5450   -0.1475 C   0  0  0  0  0  0  0  0  0  0  0  0
    6.1923    0.3502   -0.6917 C   0  0  0  0  0  0  0  0  0  0  0  0
    7.5405   -0.1077   -0.6422 C   0  0  0  0  0  0  0  0  0  0  0  0
    7.6376   -1.3441   -0.0514 C   0  0  0  0  0  0  0  0  0  0  0  0
    6.1162   -1.9401    0.4372 S   0  0  0  0  0  0  0  0  0  0  0  0
    2.6944   -2.8390    0.8778 H   0  0  0  0  0  0  0  0  0  0  0  0
    2.6092   -2.4124   -1.5818 H   0  0  0  0  0  0  0  0  0  0  0  0
    3.7642    1.7261    0.3374 H   0  0  0  0  0  0  0  0  0  0  0  0
   -0.4869   -2.9358   -0.0675 H   0  0  0  0  0  0  0  0  0  0  0  0
   -3.1135   -3.7186    0.1390 H   0  0  0  0  0  0  0  0  0  0  0  0
   -5.4113   -2.8398    0.1794 H   0  0  0  0  0  0  0  0  0  0  0  0
   -6.9824   -0.9846    0.0151 H   0  0  0  0  0  0  0  0  0  0  0  0
   -7.4378    1.4035   -0.3542 H   0  0  0  0  0  0  0  0  0  0  0  0
   -5.5604    2.9941   -0.6628 H   0  0  0  0  0  0  0  0  0  0  0  0
   -3.2491    2.2068   -0.5644 H   0  0  0  0  0  0  0  0  0  0  0  0
   -2.3052    2.6381    1.3242 H   0  0  0  0  0  0  0  0  0  0  0  0
    2.1547    3.4178    0.9194 H   0  0  0  0  0  0  0  0  0  0  0  0
    5.9001    1.3014   -1.1208 H   0  0  0  0  0  0  0  0  0  0  0  0
    8.3925    0.4440   -1.0197 H   0  0  0  0  0  0  0  0  0  0  0  0
    8.5317   -1.9275    0.1206 H   0  0  0  0  0  0  0  0  0  0  0  0
  1  2  1  0
  2  3  2  0
  3  4  1  0
  4  5  2  0
  5  6  1  0
  6  7  1  0
  7  8  1  0
  8  9  2  0
  9 10  1  0
 10 11  2  0
 11 12  1  0
 12 13  2  0
 13 14  1  0
 14 15  2  0
 15 16  1  0
 16 17  2  0
 17 18  1  0
 18 19  1  0
 19 20  2  0
 20 21  1  0
 21 22  1  0
 22 23  2  0
  2 24  1  0
 24 25  2  0
 25 26  1  0
 26 27  2  0
 27 28  1  0
  5  1  1  0
 18  6  2  0
 23 19  1  0
 28 24  1  0
 23  4  1  0
 17  8  1  0
 16 11  1  0
  1 29  1  0
  1 30  1  0
  3 31  1  0
  7 32  1  0
  9 33  1  0
 10 34  1  0
 12 35  1  0
 13 36  1  0
 14 37  1  0
 15 38  1  0
 20 39  1  0
 22 40  1  0
 25 41  1  0
 26 42  1  0
 27 43  1  0
M  END
