
     RDKit          3D

 41 47  0  0  0  0  0  0  0  0999 V2000
    0.8334   -3.0331   -1.6350 C   0  0  0  0  0  0  0  0  0  0  0  0
    1.6905   -1.8233   -1.3875 C   0  0  0  0  0  0  0  0  0  0  0  0
    0.9408   -0.8298   -0.8816 C   0  0  0  0  0  0  0  0  0  0  0  0
    1.3375    0.5318   -0.4904 C   0  0  0  0  0  0  0  0  0  0  0  0
    0.3808    1.3637   -0.0024 C   0  0  0  0  0  0  0  0  0  0  0  0
   -0.9657    0.8861    0.1038 C   0  0  0  0  0  0  0  0  0  0  0  0
   -2.0438    1.6141    0.5787 O   0  0  0  0  0  0  0  0  0  0  0  0
   -3.1163    0.7920    0.5103 C   0  0  0  0  0  0  0  0  0  0  0  0
   -2.7552   -0.4444    0.0059 C   0  0  0  0  0  0  0  0  0  0  0  0
   -4.2819   -1.5451   -0.0667 Si  0  0  0  0  0  4  0  0  0  0  0  0
   -5.3173   -0.1195    0.6419 C   0  0  0  0  0  0  0  0  0  0  0  0
   -6.6090    0.2182    1.0230 C   0  0  0  0  0  0  0  0  0  0  0  0
   -6.5267    1.5341    1.4643 C   0  0  0  0  0  0  0  0  0  0  0  0
   -5.2174    1.9787    1.3518 N   0  0  0  0  0  0  0  0  0  0  0  0
   -4.4835    0.9583    0.8473 C   0  0  0  0  0  0  0  0  0  0  0  0
   -1.4020   -0.4017   -0.2549 C   0  0  0  0  0  0  0  0  0  0  0  0
   -0.4423   -1.3067   -0.7653 C   0  0  0  0  0  0  0  0  0  0  0  0
   -0.5268   -2.5725   -1.1915 C   0  0  0  0  0  0  0  0  0  0  0  0
    2.6757    1.0331   -0.5551 C   0  0  0  0  0  0  0  0  0  0  0  0
    3.1235    2.1877   -1.7824 S   0  0  0  0  0  0  0  0  0  0  0  0
    4.7634    2.2720   -1.2545 C   0  0  0  0  0  0  0  0  0  0  0  0
    4.9401    1.4415   -0.1927 C   0  0  0  0  0  0  0  0  0  0  0  0
    6.3715    0.9568    0.9288 Si  0  0  0  0  0  4  0  0  0  0  0  0
    5.1701   -0.2034    1.8614 C   0  0  0  0  0  0  0  0  0  0  0  0
    3.9273   -0.1539    1.3332 C   0  0  0  0  0  0  0  0  0  0  0  0
    3.7781    0.7330    0.2149 C   0  0  0  0  0  0  0  0  0  0  0  0
    1.1740   -3.8846   -1.0387 H   0  0  0  0  0  0  0  0  0  0  0  0
    0.8307   -3.3023   -2.6954 H   0  0  0  0  0  0  0  0  0  0  0  0
    2.7490   -1.7772   -1.5961 H   0  0  0  0  0  0  0  0  0  0  0  0
    0.5929    2.3769    0.3202 H   0  0  0  0  0  0  0  0  0  0  0  0
   -4.6707   -1.9125   -1.4535 H   0  0  0  0  0  0  0  0  0  0  0  0
   -4.2002   -2.7139    0.8480 H   0  0  0  0  0  0  0  0  0  0  0  0
   -7.5067   -0.3856    0.9956 H   0  0  0  0  0  0  0  0  0  0  0  0
   -7.2873    2.1994    1.8507 H   0  0  0  0  0  0  0  0  0  0  0  0
   -4.8714    2.8968    1.5998 H   0  0  0  0  0  0  0  0  0  0  0  0
   -1.4145   -3.1827   -1.2253 H   0  0  0  0  0  0  0  0  0  0  0  0
    5.4716    2.9159   -1.7579 H   0  0  0  0  0  0  0  0  0  0  0  0
    7.4369    0.1800    0.2475 H   0  0  0  0  0  0  0  0  0  0  0  0
    6.8478    2.0508    1.8113 H   0  0  0  0  0  0  0  0  0  0  0  0
    5.5067   -0.7939    2.6981 H   0  0  0  0  0  0  0  0  0  0  0  0
    3.0965   -0.7348    1.7182 H   0  0  0  0  0  0  0  0  0  0  0  0
  1  2  1  0
  2  3  2  0
  3  4  1  0
  4  5  2  0
  5  6  1  0
  6  7  1  0
  7  8  1  0
  8  9  2  0
  9 10  1  0
 10 11  1  0
 11 12  1  0
 12 13  2  0
 13 14  1  0
 14 15  1  0
  9 16  1  0
 16 17  1  0
 17 18  2  0
  4 19  1  0
 19 20  1  0
 20 21  1  0
 21 22  2  0
 22 23  1  0
 23 24  1  0
 24 25  2  0
 25 26  1  0
 18  1  1  0
 26 19  2  0
 17  3  1  0
 26 22  1  0
 16  6  2  0
  8 15  1  0
 15 11  2  0
  1 27  1  0
  1 28  1  0
  2 29  1  0
  5 30  1  0
 10 31  1  0
 10 32  1  0
 12 33  1  0
 13 34  1  0
 14 35  1  0
 18 36  1  0
 21 37  1  0
 23 38  1  0
 23 39  1  0
 24 40  1  0
 25 41  1  0
M  END
