
     RDKit          3D

 46 53  0  0  0  0  0  0  0  0999 V2000
    3.9232   -3.1548   -0.2565 C   0  0  0  0  0  0  0  0  0  0  0  0
    4.3479   -1.7189   -0.2218 C   0  0  0  0  0  0  0  0  0  0  0  0
    3.2699   -0.9205   -0.1408 C   0  0  0  0  0  0  0  0  0  0  0  0
    3.2120    0.5504   -0.0880 C   0  0  0  0  0  0  0  0  0  0  0  0
    1.9824    1.1201   -0.0251 C   0  0  0  0  0  0  0  0  0  0  0  0
    0.8203    0.2860   -0.0160 C   0  0  0  0  0  0  0  0  0  0  0  0
   -0.4653    0.7522    0.0431 O   0  0  0  0  0  0  0  0  0  0  0  0
   -1.3308   -0.3121    0.0376 C   0  0  0  0  0  0  0  0  0  0  0  0
   -0.5584   -1.4575   -0.0272 C   0  0  0  0  0  0  0  0  0  0  0  0
   -1.2324   -2.7126   -0.0459 C   0  0  0  0  0  0  0  0  0  0  0  0
   -0.6143   -3.8797   -0.1059 N   0  0  0  0  0  0  0  0  0  0  0  0
   -1.8681   -4.9814   -0.0995 S   0  0  0  0  0  0  0  0  0  0  0  0
   -3.1749   -3.9464   -0.0215 N   0  0  0  0  0  0  0  0  0  0  0  0
   -2.6853   -2.6864    0.0042 C   0  0  0  0  0  0  0  0  0  0  0  0
   -3.4487   -1.4761    0.0705 C   0  0  0  0  0  0  0  0  0  0  0  0
   -4.8504   -1.5204    0.1160 C   0  0  0  0  0  0  0  0  0  0  0  0
   -5.5827   -0.3401    0.1803 C   0  0  0  0  0  0  0  0  0  0  0  0
   -4.9480    0.9082    0.2015 C   0  0  0  0  0  0  0  0  0  0  0  0
   -5.7387    2.0679    0.2675 C   0  0  0  0  0  0  0  0  0  0  0  0
   -5.1619    3.3339    0.2918 C   0  0  0  0  0  0  0  0  0  0  0  0
   -3.7828    3.4545    0.2504 C   0  0  0  0  0  0  0  0  0  0  0  0
   -2.9837    2.3087    0.1844 C   0  0  0  0  0  0  0  0  0  0  0  0
   -3.5290    0.9988    0.1572 C   0  0  0  0  0  0  0  0  0  0  0  0
   -2.7620   -0.2267    0.0894 C   0  0  0  0  0  0  0  0  0  0  0  0
    0.7978   -1.1118   -0.0621 C   0  0  0  0  0  0  0  0  0  0  0  0
    2.0596   -1.7670   -0.1284 C   0  0  0  0  0  0  0  0  0  0  0  0
    2.4287   -3.0527   -0.1926 C   0  0  0  0  0  0  0  0  0  0  0  0
    4.3574    1.4207   -0.0767 C   0  0  0  0  0  0  0  0  0  0  0  0
    4.5117    2.7205   -0.5603 C   0  0  0  0  0  0  0  0  0  0  0  0
    5.8388    3.1382   -0.3023 C   0  0  0  0  0  0  0  0  0  0  0  0
    6.4448    2.0821    0.3241 C   0  0  0  0  0  0  0  0  0  0  0  0
    5.5767    1.0533    0.4613 O   0  0  0  0  0  0  0  0  0  0  0  0
    4.3181   -3.7042    0.6031 H   0  0  0  0  0  0  0  0  0  0  0  0
    4.2454   -3.6388   -1.1831 H   0  0  0  0  0  0  0  0  0  0  0  0
    5.3784   -1.3990   -0.2570 H   0  0  0  0  0  0  0  0  0  0  0  0
    1.8278    2.1907    0.0389 H   0  0  0  0  0  0  0  0  0  0  0  0
   -5.3781   -2.4724    0.1017 H   0  0  0  0  0  0  0  0  0  0  0  0
   -6.6690   -0.4071    0.2145 H   0  0  0  0  0  0  0  0  0  0  0  0
   -6.8241    1.9935    0.3012 H   0  0  0  0  0  0  0  0  0  0  0  0
   -5.7887    4.2197    0.3433 H   0  0  0  0  0  0  0  0  0  0  0  0
   -3.3190    4.4373    0.2695 H   0  0  0  0  0  0  0  0  0  0  0  0
   -1.9109    2.4694    0.1553 H   0  0  0  0  0  0  0  0  0  0  0  0
    1.7885   -3.9174   -0.2043 H   0  0  0  0  0  0  0  0  0  0  0  0
    3.7453    3.3000   -1.0568 H   0  0  0  0  0  0  0  0  0  0  0  0
    6.2942    4.0874   -0.5462 H   0  0  0  0  0  0  0  0  0  0  0  0
    7.4383    1.9104    0.7140 H   0  0  0  0  0  0  0  0  0  0  0  0
  1  2  1  0
  2  3  2  0
  3  4  1  0
  4  5  2  0
  5  6  1  0
  6  7  1  0
  7  8  1  0
  8  9  2  0
  9 10  1  0
 10 11  2  0
 11 12  1  0
 12 13  1  0
 13 14  2  0
 14 15  1  0
 15 16  2  0
 16 17  1  0
 17 18  2  0
 18 19  1  0
 19 20  2  0
 20 21  1  0
 21 22  2  0
 22 23  1  0
 23 24  2  0
  9 25  1  0
 25 26  1  0
 26 27  2  0
  4 28  1  0
 28 29  2  0
 29 30  1  0
 30 31  2  0
 31 32  1  0
 27  1  1  0
 32 28  1  0
 26  3  1  0
 25  6  2  0
 24  8  1  0
 14 10  1  0
 24 15  1  0
 23 18  1  0
  1 33  1  0
  1 34  1  0
  2 35  1  0
  5 36  1  0
 16 37  1  0
 17 38  1  0
 19 39  1  0
 20 40  1  0
 21 41  1  0
 22 42  1  0
 27 43  1  0
 29 44  1  0
 30 45  1  0
 31 46  1  0
M  END
