
     RDKit          3D

 45 52  0  0  0  0  0  0  0  0999 V2000
   -1.6312    3.1368   -0.0382 C   0  0  0  0  0  0  0  0  0  0  0  0
   -2.4893    1.9458   -0.3324 C   0  0  0  0  0  0  0  0  0  0  0  0
   -1.7346    0.8344   -0.3406 C   0  0  0  0  0  0  0  0  0  0  0  0
   -2.1694   -0.5602   -0.4506 C   0  0  0  0  0  0  0  0  0  0  0  0
   -1.2309   -1.5221   -0.2740 C   0  0  0  0  0  0  0  0  0  0  0  0
    0.1380   -1.1385   -0.0725 C   0  0  0  0  0  0  0  0  0  0  0  0
    1.3422   -2.3061    0.2450 S   0  0  0  0  0  0  0  0  0  0  0  0
    2.6241   -1.1361    0.2208 C   0  0  0  0  0  0  0  0  0  0  0  0
    2.0635    0.1141   -0.0559 C   0  0  0  0  0  0  0  0  0  0  0  0
    3.0145    1.1660   -0.2896 C   0  0  0  0  0  0  0  0  0  0  0  0
    2.8789    2.4311   -0.7744 C   0  0  0  0  0  0  0  0  0  0  0  0
    4.1202    3.0097   -0.8245 O   0  0  0  0  0  0  0  0  0  0  0  0
    5.0248    2.0695   -0.4113 C   0  0  0  0  0  0  0  0  0  0  0  0
    4.3818    0.8923   -0.1034 C   0  0  0  0  0  0  0  0  0  0  0  0
    4.9951   -0.3152    0.2719 C   0  0  0  0  0  0  0  0  0  0  0  0
    6.3690   -0.5626    0.4646 C   0  0  0  0  0  0  0  0  0  0  0  0
    6.7495   -1.8501    0.7955 C   0  0  0  0  0  0  0  0  0  0  0  0
    5.8860   -2.8787    0.9381 N   0  0  0  0  0  0  0  0  0  0  0  0
    4.5677   -2.6151    0.7440 C   0  0  0  0  0  0  0  0  0  0  0  0
    4.0455   -1.3579    0.4135 C   0  0  0  0  0  0  0  0  0  0  0  0
    0.6495    0.1593   -0.0769 C   0  0  0  0  0  0  0  0  0  0  0  0
   -0.3257    1.2074   -0.1259 C   0  0  0  0  0  0  0  0  0  0  0  0
   -0.2702    2.5238    0.1211 C   0  0  0  0  0  0  0  0  0  0  0  0
   -3.5180   -0.9829   -0.6482 C   0  0  0  0  0  0  0  0  0  0  0  0
   -4.0197   -1.8113   -2.1104 S   0  0  0  0  0  0  0  0  0  0  0  0
   -5.6781   -1.9447   -1.6123 C   0  0  0  0  0  0  0  0  0  0  0  0
   -5.7916   -1.3704   -0.3992 C   0  0  0  0  0  0  0  0  0  0  0  0
   -6.9246   -1.2548    0.3516 N   0  0  0  0  0  0  0  0  0  0  0  0
   -6.4371   -0.5885    1.4751 C   0  0  0  0  0  0  0  0  0  0  0  0
   -5.0533   -0.3309    1.3673 C   0  0  0  0  0  0  0  0  0  0  0  0
   -4.6273   -0.8514    0.1175 C   0  0  0  0  0  0  0  0  0  0  0  0
   -1.6482    3.8549   -0.8630 H   0  0  0  0  0  0  0  0  0  0  0  0
   -1.9492    3.6284    0.8860 H   0  0  0  0  0  0  0  0  0  0  0  0
   -3.5620    1.9902   -0.4483 H   0  0  0  0  0  0  0  0  0  0  0  0
   -1.4879   -2.5778   -0.2963 H   0  0  0  0  0  0  0  0  0  0  0  0
    2.0773    3.0493   -1.1458 H   0  0  0  0  0  0  0  0  0  0  0  0
    6.0562    2.3924   -0.4275 H   0  0  0  0  0  0  0  0  0  0  0  0
    7.1139    0.2161    0.3571 H   0  0  0  0  0  0  0  0  0  0  0  0
    7.7944   -2.1004    0.9569 H   0  0  0  0  0  0  0  0  0  0  0  0
    3.9287   -3.4843    0.8746 H   0  0  0  0  0  0  0  0  0  0  0  0
    0.5868    3.0917    0.4399 H   0  0  0  0  0  0  0  0  0  0  0  0
   -6.4315   -2.4184   -2.2255 H   0  0  0  0  0  0  0  0  0  0  0  0
   -7.8581   -1.5774    0.1284 H   0  0  0  0  0  0  0  0  0  0  0  0
   -7.1215   -0.3474    2.2784 H   0  0  0  0  0  0  0  0  0  0  0  0
   -4.4484    0.1700    2.1119 H   0  0  0  0  0  0  0  0  0  0  0  0
  1  2  1  0
  2  3  2  0
  3  4  1  0
  4  5  2  0
  5  6  1  0
  6  7  1  0
  7  8  1  0
  8  9  2  0
  9 10  1  0
 10 11  2  0
 11 12  1  0
 12 13  1  0
 13 14  2  0
 14 15  1  0
 15 16  2  0
 16 17  1  0
 17 18  2  0
 18 19  1  0
 19 20  2  0
  9 21  1  0
 21 22  1  0
 22 23  2  0
  4 24  1  0
 24 25  1  0
 25 26  1  0
 26 27  2  0
 27 28  1  0
 28 29  1  0
 29 30  2  0
 30 31  1  0
 23  1  1  0
 31 24  2  0
 22  3  1  0
 31 27  1  0
 21  6  2  0
 20  8  1  0
 14 10  1  0
 20 15  1  0
  1 32  1  0
  1 33  1  0
  2 34  1  0
  5 35  1  0
 11 36  1  0
 13 37  1  0
 16 38  1  0
 17 39  1  0
 19 40  1  0
 23 41  1  0
 26 42  1  0
 28 43  1  0
 29 44  1  0
 30 45  1  0
M  END
