
     RDKit          3D

 41 47  0  0  0  0  0  0  0  0999 V2000
   -0.7934    3.3281    0.5754 C   0  0  0  0  0  0  0  0  0  0  0  0
   -1.7663    2.3022    0.0606 C   0  0  0  0  0  0  0  0  0  0  0  0
   -1.1159    1.1628   -0.2291 C   0  0  0  0  0  0  0  0  0  0  0  0
   -1.6356   -0.1051   -0.7631 C   0  0  0  0  0  0  0  0  0  0  0  0
   -0.7549   -1.1176   -0.9844 C   0  0  0  0  0  0  0  0  0  0  0  0
    0.6381   -0.9072   -0.6953 C   0  0  0  0  0  0  0  0  0  0  0  0
    1.8297   -2.1306   -0.9474 S   0  0  0  0  0  0  0  0  0  0  0  0
    3.0736   -1.0592   -0.3710 C   0  0  0  0  0  0  0  0  0  0  0  0
    4.4739   -1.0259   -0.1419 C   0  0  0  0  0  0  0  0  0  0  0  0
    5.5584   -1.9045   -0.2889 C   0  0  0  0  0  0  0  0  0  0  0  0
    6.8338   -1.4493    0.0720 C   0  0  0  0  0  0  0  0  0  0  0  0
    7.0237   -0.1555    0.5654 C   0  0  0  0  0  0  0  0  0  0  0  0
    5.9483    0.7276    0.7155 C   0  0  0  0  0  0  0  0  0  0  0  0
    4.6880    0.2539    0.3503 C   0  0  0  0  0  0  0  0  0  0  0  0
    3.5389    0.9818    0.4335 O   0  0  0  0  0  0  0  0  0  0  0  0
    2.5583    0.1474   -0.0186 C   0  0  0  0  0  0  0  0  0  0  0  0
    1.1747    0.2704   -0.1895 C   0  0  0  0  0  0  0  0  0  0  0  0
    0.3071    1.3572    0.0632 C   0  0  0  0  0  0  0  0  0  0  0  0
    0.5158    2.5937    0.5298 C   0  0  0  0  0  0  0  0  0  0  0  0
   -3.0161   -0.3621   -1.0276 C   0  0  0  0  0  0  0  0  0  0  0  0
   -3.6038   -0.5323   -2.6592 S   0  0  0  0  0  0  0  0  0  0  0  0
   -5.2374   -0.7814   -2.1556 C   0  0  0  0  0  0  0  0  0  0  0  0
   -5.3040   -0.7240   -0.7986 C   0  0  0  0  0  0  0  0  0  0  0  0
   -6.3241   -0.8441    0.1766 C   0  0  0  0  0  0  0  0  0  0  0  0
   -5.7817   -0.6923    1.4066 C   0  0  0  0  0  0  0  0  0  0  0  0
   -4.2709   -0.4453    1.3240 C   0  0  0  0  0  0  0  0  0  0  0  0
   -4.0693   -0.4864   -0.1539 C   0  0  0  0  0  0  0  0  0  0  0  0
   -1.0422    3.6268    1.5979 H   0  0  0  0  0  0  0  0  0  0  0  0
   -0.7729    4.2094   -0.0725 H   0  0  0  0  0  0  0  0  0  0  0  0
   -2.8247    2.4790   -0.0592 H   0  0  0  0  0  0  0  0  0  0  0  0
   -1.0782   -2.0831   -1.3631 H   0  0  0  0  0  0  0  0  0  0  0  0
    5.4167   -2.9105   -0.6721 H   0  0  0  0  0  0  0  0  0  0  0  0
    7.6885   -2.1144   -0.0344 H   0  0  0  0  0  0  0  0  0  0  0  0
    8.0247    0.1729    0.8380 H   0  0  0  0  0  0  0  0  0  0  0  0
    6.0813    1.7331    1.0965 H   0  0  0  0  0  0  0  0  0  0  0  0
    1.4678    3.0102    0.8220 H   0  0  0  0  0  0  0  0  0  0  0  0
   -6.0227   -0.9473   -2.8791 H   0  0  0  0  0  0  0  0  0  0  0  0
   -7.3671   -1.0287   -0.0382 H   0  0  0  0  0  0  0  0  0  0  0  0
   -6.3265   -0.7367    2.3379 H   0  0  0  0  0  0  0  0  0  0  0  0
   -4.0150    0.5308    1.7449 H   0  0  0  0  0  0  0  0  0  0  0  0
   -3.7187   -1.2403    1.8326 H   0  0  0  0  0  0  0  0  0  0  0  0
  1  2  1  0
  2  3  2  0
  3  4  1  0
  4  5  2  0
  5  6  1  0
  6  7  1  0
  7  8  1  0
  8  9  1  0
  9 10  2  0
 10 11  1  0
 11 12  2  0
 12 13  1  0
 13 14  2  0
 14 15  1  0
 15 16  1  0
 16 17  1  0
 17 18  1  0
 18 19  2  0
  4 20  1  0
 20 21  1  0
 21 22  1  0
 22 23  2  0
 23 24  1  0
 24 25  2  0
 25 26  1  0
 26 27  1  0
 19  1  1  0
 27 20  2  0
 18  3  1  0
 27 23  1  0
 17  6  2  0
 16  8  2  0
 14  9  1  0
  1 28  1  0
  1 29  1  0
  2 30  1  0
  5 31  1  0
 10 32  1  0
 11 33  1  0
 12 34  1  0
 13 35  1  0
 19 36  1  0
 22 37  1  0
 24 38  1  0
 25 39  1  0
 26 40  1  0
 26 41  1  0
M  END
