
     RDKit          3D

 38 44  0  0  0  0  0  0  0  0999 V2000
   -0.0028   -3.3144    0.1135 C   0  0  0  0  0  0  0  0  0  0  0  0
   -1.0287   -2.2746   -0.2478 C   0  0  0  0  0  0  0  0  0  0  0  0
   -0.4400   -1.0716   -0.3557 C   0  0  0  0  0  0  0  0  0  0  0  0
   -1.0297    0.2335   -0.6926 C   0  0  0  0  0  0  0  0  0  0  0  0
   -0.2113    1.3188   -0.7434 C   0  0  0  0  0  0  0  0  0  0  0  0
    1.1910    1.1472   -0.4752 C   0  0  0  0  0  0  0  0  0  0  0  0
    2.3183    2.4866   -0.5229 S   0  0  0  0  0  0  0  0  0  0  0  0
    3.5074    1.3947   -0.1246 C   0  0  0  0  0  0  0  0  0  0  0  0
    4.8041    1.4489    0.0866 C   0  0  0  0  0  0  0  0  0  0  0  0
    5.6948    2.4424    0.0608 O   0  0  0  0  0  0  0  0  0  0  0  0
    6.8578    1.7640    0.3809 C   0  0  0  0  0  0  0  0  0  0  0  0
    6.6692    0.3980    0.5942 C   0  0  0  0  0  0  0  0  0  0  0  0
    5.2929    0.2581    0.3845 C   0  0  0  0  0  0  0  0  0  0  0  0
    4.2760   -0.6397    0.3728 O   0  0  0  0  0  0  0  0  0  0  0  0
    3.1700    0.1059    0.0497 C   0  0  0  0  0  0  0  0  0  0  0  0
    1.7964   -0.0768   -0.1514 C   0  0  0  0  0  0  0  0  0  0  0  0
    0.9905   -1.2334   -0.0812 C   0  0  0  0  0  0  0  0  0  0  0  0
    1.2656   -2.5135    0.1930 C   0  0  0  0  0  0  0  0  0  0  0  0
   -2.4228    0.4483   -0.9384 C   0  0  0  0  0  0  0  0  0  0  0  0
   -2.9927    0.7519   -2.5581 S   0  0  0  0  0  0  0  0  0  0  0  0
   -4.6423    0.8715   -2.0686 C   0  0  0  0  0  0  0  0  0  0  0  0
   -4.7310    0.6767   -0.7261 C   0  0  0  0  0  0  0  0  0  0  0  0
   -6.1121    0.6388    0.5521 Si  0  0  0  0  0  4  0  0  0  0  0  0
   -4.7873    0.2817    1.8850 C   0  0  0  0  0  0  0  0  0  0  0  0
   -3.5492    0.2230    1.3467 C   0  0  0  0  0  0  0  0  0  0  0  0
   -3.4937    0.4340   -0.0716 C   0  0  0  0  0  0  0  0  0  0  0  0
   -0.2365   -3.7784    1.0762 H   0  0  0  0  0  0  0  0  0  0  0  0
    0.0656   -4.0840   -0.6609 H   0  0  0  0  0  0  0  0  0  0  0  0
   -2.0771   -2.4850   -0.3984 H   0  0  0  0  0  0  0  0  0  0  0  0
   -0.5908    2.3105   -0.9732 H   0  0  0  0  0  0  0  0  0  0  0  0
    7.7375    2.3939    0.4178 H   0  0  0  0  0  0  0  0  0  0  0  0
    7.4104   -0.3412    0.8536 H   0  0  0  0  0  0  0  0  0  0  0  0
    2.2378   -2.9185    0.4297 H   0  0  0  0  0  0  0  0  0  0  0  0
   -5.4191    1.0711   -2.7943 H   0  0  0  0  0  0  0  0  0  0  0  0
   -6.7592    1.9540    0.7840 H   0  0  0  0  0  0  0  0  0  0  0  0
   -7.0400   -0.5101    0.4053 H   0  0  0  0  0  0  0  0  0  0  0  0
   -5.0619    0.1554    2.9198 H   0  0  0  0  0  0  0  0  0  0  0  0
   -2.6571    0.0322    1.9330 H   0  0  0  0  0  0  0  0  0  0  0  0
  1  2  1  0
  2  3  2  0
  3  4  1  0
  4  5  2  0
  5  6  1  0
  6  7  1  0
  7  8  1  0
  8  9  1  0
  9 10  1  0
 10 11  1  0
 11 12  2  0
 12 13  1  0
 13 14  1  0
 14 15  1  0
 15 16  1  0
 16 17  1  0
 17 18  2  0
  4 19  1  0
 19 20  1  0
 20 21  1  0
 21 22  2  0
 22 23  1  0
 23 24  1  0
 24 25  2  0
 25 26  1  0
 18  1  1  0
 26 19  2  0
 17  3  1  0
 26 22  1  0
 16  6  2  0
 15  8  2  0
 13  9  2  0
  1 27  1  0
  1 28  1  0
  2 29  1  0
  5 30  1  0
 11 31  1  0
 12 32  1  0
 18 33  1  0
 21 34  1  0
 23 35  1  0
 23 36  1  0
 24 37  1  0
 25 38  1  0
M  END
