
     RDKit          3D

 50 57  0  0  0  0  0  0  0  0999 V2000
   -2.7274    3.1422   -2.2899 C   0  0  0  0  0  0  0  0  0  0  0  0
   -1.4679    2.5012   -1.7932 C   0  0  0  0  0  0  0  0  0  0  0  0
   -1.7581    1.4774   -0.9761 C   0  0  0  0  0  0  0  0  0  0  0  0
   -0.9182    0.5221   -0.3188 C   0  0  0  0  0  0  0  0  0  0  0  0
   -1.5324   -0.6236    0.1815 C   0  0  0  0  0  0  0  0  0  0  0  0
   -0.5304   -1.4935    0.4949 N   0  0  0  0  0  0  0  0  0  0  0  0
    0.6980   -0.8874    0.3546 C   0  0  0  0  0  0  0  0  0  0  0  0
    1.9663   -1.4381    0.5515 C   0  0  0  0  0  0  0  0  0  0  0  0
    3.0897   -0.6190    0.3774 C   0  0  0  0  0  0  0  0  0  0  0  0
    4.4015   -1.2571    0.5119 C   0  0  0  0  0  0  0  0  0  0  0  0
    5.0257   -1.8140    1.6132 C   0  0  0  0  0  0  0  0  0  0  0  0
    6.2797   -2.3197    1.1923 C   0  0  0  0  0  0  0  0  0  0  0  0
    6.3878   -2.0733   -0.1572 C   0  0  0  0  0  0  0  0  0  0  0  0
    5.2433   -1.4384   -0.5628 N   0  0  0  0  0  0  0  0  0  0  0  0
    2.9416    0.7628    0.1074 C   0  0  0  0  0  0  0  0  0  0  0  0
    4.0414    1.6534    0.0387 C   0  0  0  0  0  0  0  0  0  0  0  0
    3.8724    3.0246   -0.1581 C   0  0  0  0  0  0  0  0  0  0  0  0
    2.5950    3.5513   -0.2643 C   0  0  0  0  0  0  0  0  0  0  0  0
    1.4896    2.7030   -0.2049 C   0  0  0  0  0  0  0  0  0  0  0  0
    1.6345    1.3049   -0.0659 C   0  0  0  0  0  0  0  0  0  0  0  0
    0.4874    0.4406   -0.0329 C   0  0  0  0  0  0  0  0  0  0  0  0
   -2.9733   -0.8411    0.2515 C   0  0  0  0  0  0  0  0  0  0  0  0
   -3.6650   -1.8925    0.8591 C   0  0  0  0  0  0  0  0  0  0  0  0
   -3.2031   -2.9844    1.5494 C   0  0  0  0  0  0  0  0  0  0  0  0
   -4.2543   -3.7513    1.9774 O   0  0  0  0  0  0  0  0  0  0  0  0
   -5.4056   -3.1359    1.5753 C   0  0  0  0  0  0  0  0  0  0  0  0
   -5.0922   -1.9895    0.8975 C   0  0  0  0  0  0  0  0  0  0  0  0
   -5.9934   -1.0807    0.3616 C   0  0  0  0  0  0  0  0  0  0  0  0
   -5.3124    0.0037   -0.2417 C   0  0  0  0  0  0  0  0  0  0  0  0
   -3.8755    0.1357   -0.3009 C   0  0  0  0  0  0  0  0  0  0  0  0
   -3.2235    1.2980   -0.9590 C   0  0  0  0  0  0  0  0  0  0  0  0
   -3.7905    2.2706   -1.6946 C   0  0  0  0  0  0  0  0  0  0  0  0
   -2.8138    4.1742   -1.9377 H   0  0  0  0  0  0  0  0  0  0  0  0
   -2.7725    3.1206   -3.3828 H   0  0  0  0  0  0  0  0  0  0  0  0
   -0.4875    2.8123   -2.1138 H   0  0  0  0  0  0  0  0  0  0  0  0
   -0.6476   -2.4530    0.7785 H   0  0  0  0  0  0  0  0  0  0  0  0
    2.0826   -2.4868    0.8118 H   0  0  0  0  0  0  0  0  0  0  0  0
    4.6205   -1.8433    2.6167 H   0  0  0  0  0  0  0  0  0  0  0  0
    7.0209   -2.8125    1.8079 H   0  0  0  0  0  0  0  0  0  0  0  0
    7.1759   -2.2972   -0.8633 H   0  0  0  0  0  0  0  0  0  0  0  0
    5.0378   -1.1403   -1.5075 H   0  0  0  0  0  0  0  0  0  0  0  0
    5.0570    1.2874    0.1767 H   0  0  0  0  0  0  0  0  0  0  0  0
    4.7390    3.6794   -0.1906 H   0  0  0  0  0  0  0  0  0  0  0  0
    2.4524    4.6232   -0.3704 H   0  0  0  0  0  0  0  0  0  0  0  0
    0.5058    3.1582   -0.2078 H   0  0  0  0  0  0  0  0  0  0  0  0
   -2.2365   -3.3672    1.8358 H   0  0  0  0  0  0  0  0  0  0  0  0
   -6.3236   -3.6315    1.8575 H   0  0  0  0  0  0  0  0  0  0  0  0
   -7.0709   -1.1588    0.3995 H   0  0  0  0  0  0  0  0  0  0  0  0
   -5.9298    0.7856   -0.6827 H   0  0  0  0  0  0  0  0  0  0  0  0
   -4.8408    2.3976   -1.9030 H   0  0  0  0  0  0  0  0  0  0  0  0
  1  2  1  0
  2  3  2  0
  3  4  1  0
  4  5  2  0
  5  6  1  0
  6  7  1  0
  7  8  2  0
  8  9  1  0
  9 10  1  0
 10 11  2  0
 11 12  1  0
 12 13  2  0
 13 14  1  0
  9 15  2  0
 15 16  1  0
 16 17  2  0
 17 18  1  0
 18 19  2  0
 19 20  1  0
 20 21  2  0
  5 22  1  0
 22 23  1  0
 23 24  2  0
 24 25  1  0
 25 26  1  0
 26 27  2  0
 27 28  1  0
 28 29  2  0
 29 30  1  0
 30 31  1  0
 31 32  2  0
 32  1  1  0
 31  3  1  0
 21  4  1  0
 30 22  2  0
 21  7  1  0
 27 23  1  0
 14 10  1  0
 20 15  1  0
  1 33  1  0
  1 34  1  0
  2 35  1  0
  6 36  1  0
  8 37  1  0
 11 38  1  0
 12 39  1  0
 13 40  1  0
 14 41  1  0
 16 42  1  0
 17 43  1  0
 18 44  1  0
 19 45  1  0
 24 46  1  0
 26 47  1  0
 28 48  1  0
 29 49  1  0
 32 50  1  0
M  END
