
     RDKit          3D

 41 47  0  0  0  0  0  0  0  0999 V2000
   -2.5026    0.2627    3.7129 C   0  0  0  0  0  0  0  0  0  0  0  0
   -1.3570    0.1752    2.7486 C   0  0  0  0  0  0  0  0  0  0  0  0
   -1.8343    0.0289    1.5063 C   0  0  0  0  0  0  0  0  0  0  0  0
   -1.1866   -0.0988    0.2574 C   0  0  0  0  0  0  0  0  0  0  0  0
   -1.9345   -0.2404   -0.9008 C   0  0  0  0  0  0  0  0  0  0  0  0
   -1.0691   -0.3431   -1.9581 N   0  0  0  0  0  0  0  0  0  0  0  0
    0.2194   -0.2671   -1.4732 C   0  0  0  0  0  0  0  0  0  0  0  0
    1.5348   -0.3040   -2.0062 C   0  0  0  0  0  0  0  0  0  0  0  0
    2.4838   -0.1760   -1.0012 C   0  0  0  0  0  0  0  0  0  0  0  0
    1.7597   -0.0142    0.5632 S   0  0  0  0  0  0  0  0  0  0  0  0
    0.1773   -0.1171   -0.1176 C   0  0  0  0  0  0  0  0  0  0  0  0
    3.9248   -0.1693   -1.1616 C   0  0  0  0  0  0  0  0  0  0  0  0
    4.6820   -0.3275   -2.7375 S   0  0  0  0  0  0  0  0  0  0  0  0
    6.2948   -0.2336   -2.1198 C   0  0  0  0  0  0  0  0  0  0  0  0
    6.2143   -0.0901   -0.7839 C   0  0  0  0  0  0  0  0  0  0  0  0
    7.2641    0.0211    0.0807 N   0  0  0  0  0  0  0  0  0  0  0  0
    6.6010    0.1419    1.2973 C   0  0  0  0  0  0  0  0  0  0  0  0
    5.2006    0.1002    1.1289 C   0  0  0  0  0  0  0  0  0  0  0  0
    4.9374   -0.0551   -0.2636 C   0  0  0  0  0  0  0  0  0  0  0  0
   -3.4091   -0.2702   -0.9406 C   0  0  0  0  0  0  0  0  0  0  0  0
   -4.1283   -0.4149   -2.1313 C   0  0  0  0  0  0  0  0  0  0  0  0
   -5.5245   -0.4362   -2.1061 C   0  0  0  0  0  0  0  0  0  0  0  0
   -6.2098   -0.3137   -0.8972 C   0  0  0  0  0  0  0  0  0  0  0  0
   -5.5070   -0.1684    0.3010 C   0  0  0  0  0  0  0  0  0  0  0  0
   -4.1078   -0.1446    0.2979 C   0  0  0  0  0  0  0  0  0  0  0  0
   -3.3027    0.0070    1.5370 C   0  0  0  0  0  0  0  0  0  0  0  0
   -3.7019    0.1420    2.8138 C   0  0  0  0  0  0  0  0  0  0  0  0
   -2.5018    1.2214    4.2397 H   0  0  0  0  0  0  0  0  0  0  0  0
   -2.4711   -0.5564    4.4373 H   0  0  0  0  0  0  0  0  0  0  0  0
   -0.3173    0.2245    3.0307 H   0  0  0  0  0  0  0  0  0  0  0  0
   -1.2903   -0.4559   -2.9385 H   0  0  0  0  0  0  0  0  0  0  0  0
    1.7613   -0.4172   -3.0584 H   0  0  0  0  0  0  0  0  0  0  0  0
    7.1673   -0.2879   -2.7552 H   0  0  0  0  0  0  0  0  0  0  0  0
    8.2536    0.0143   -0.1343 H   0  0  0  0  0  0  0  0  0  0  0  0
    7.1814    0.2499    2.2046 H   0  0  0  0  0  0  0  0  0  0  0  0
    4.4817    0.1753    1.9337 H   0  0  0  0  0  0  0  0  0  0  0  0
   -3.6223   -0.5123   -3.0860 H   0  0  0  0  0  0  0  0  0  0  0  0
   -6.0810   -0.5489   -3.0334 H   0  0  0  0  0  0  0  0  0  0  0  0
   -7.2970   -0.3313   -0.8867 H   0  0  0  0  0  0  0  0  0  0  0  0
   -6.0643   -0.0750    1.2282 H   0  0  0  0  0  0  0  0  0  0  0  0
   -4.7188    0.1643    3.1720 H   0  0  0  0  0  0  0  0  0  0  0  0
  1  2  1  0
  2  3  2  0
  3  4  1  0
  4  5  2  0
  5  6  1  0
  6  7  1  0
  7  8  1  0
  8  9  2  0
  9 10  1  0
 10 11  1  0
  9 12  1  0
 12 13  1  0
 13 14  1  0
 14 15  2  0
 15 16  1  0
 16 17  1  0
 17 18  2  0
 18 19  1  0
  5 20  1  0
 20 21  2  0
 21 22  1  0
 22 23  2  0
 23 24  1  0
 24 25  2  0
 25 26  1  0
 26 27  2  0
 27  1  1  0
 26  3  1  0
 11  4  1  0
 19 12  2  0
 25 20  1  0
 11  7  2  0
 19 15  1  0
  1 28  1  0
  1 29  1  0
  2 30  1  0
  6 31  1  0
  8 32  1  0
 14 33  1  0
 16 34  1  0
 17 35  1  0
 18 36  1  0
 21 37  1  0
 22 38  1  0
 23 39  1  0
 24 40  1  0
 27 41  1  0
M  END
