
     RDKit          3D

 49 56  0  0  0  0  0  0  0  0999 V2000
   -1.0699   -3.9612   -1.1165 C   0  0  0  0  0  0  0  0  0  0  0  0
   -2.0850   -2.8657   -0.9878 C   0  0  0  0  0  0  0  0  0  0  0  0
   -1.4990   -1.7463   -0.5435 C   0  0  0  0  0  0  0  0  0  0  0  0
   -1.9966   -0.4473   -0.2511 C   0  0  0  0  0  0  0  0  0  0  0  0
   -1.0626    0.5915   -0.1284 C   0  0  0  0  0  0  0  0  0  0  0  0
   -1.7568    1.7055    0.2938 N   0  0  0  0  0  0  0  0  0  0  0  0
   -3.1148    1.4719    0.3217 C   0  0  0  0  0  0  0  0  0  0  0  0
   -4.1874    2.3513    0.6347 C   0  0  0  0  0  0  0  0  0  0  0  0
   -5.5135    1.8840    0.7000 C   0  0  0  0  0  0  0  0  0  0  0  0
   -5.5933    0.5187    0.4754 C   0  0  0  0  0  0  0  0  0  0  0  0
   -6.7448   -0.2263    0.5455 C   0  0  0  0  0  0  0  0  0  0  0  0
   -6.4600   -1.5495    0.3309 O   0  0  0  0  0  0  0  0  0  0  0  0
   -5.1061   -1.6501    0.1165 C   0  0  0  0  0  0  0  0  0  0  0  0
   -4.5717   -0.4008    0.1706 C   0  0  0  0  0  0  0  0  0  0  0  0
   -3.2445    0.1155    0.0421 C   0  0  0  0  0  0  0  0  0  0  0  0
    0.4248    0.4495   -0.1940 C   0  0  0  0  0  0  0  0  0  0  0  0
    1.3538    1.5354   -0.2166 C   0  0  0  0  0  0  0  0  0  0  0  0
    0.9885    2.8784   -0.5000 C   0  0  0  0  0  0  0  0  0  0  0  0
    1.8934    3.9383   -0.4416 C   0  0  0  0  0  0  0  0  0  0  0  0
    3.2110    3.6884   -0.1151 C   0  0  0  0  0  0  0  0  0  0  0  0
    3.6248    2.3749    0.0970 C   0  0  0  0  0  0  0  0  0  0  0  0
    2.7380    1.2702    0.0127 C   0  0  0  0  0  0  0  0  0  0  0  0
    3.1908   -0.0759    0.1478 C   0  0  0  0  0  0  0  0  0  0  0  0
    2.2653   -1.1278    0.0204 C   0  0  0  0  0  0  0  0  0  0  0  0
    0.9076   -0.8868   -0.1751 C   0  0  0  0  0  0  0  0  0  0  0  0
   -0.0542   -1.9836   -0.4309 C   0  0  0  0  0  0  0  0  0  0  0  0
    0.2032   -3.2674   -0.7387 C   0  0  0  0  0  0  0  0  0  0  0  0
    4.6008   -0.4430    0.3662 C   0  0  0  0  0  0  0  0  0  0  0  0
    5.5031   -0.0265   -0.5279 N   0  0  0  0  0  0  0  0  0  0  0  0
    6.7453   -0.4390   -0.2908 C   0  0  0  0  0  0  0  0  0  0  0  0
    7.1371   -1.2024    0.7259 N   0  0  0  0  0  0  0  0  0  0  0  0
    6.1495   -1.5622    1.5415 C   0  0  0  0  0  0  0  0  0  0  0  0
    4.8682   -1.2278    1.4157 N   0  0  0  0  0  0  0  0  0  0  0  0
   -1.2899   -4.7886   -0.4357 H   0  0  0  0  0  0  0  0  0  0  0  0
   -1.0227   -4.3320   -2.1447 H   0  0  0  0  0  0  0  0  0  0  0  0
   -3.1156   -2.9933   -1.2615 H   0  0  0  0  0  0  0  0  0  0  0  0
   -1.3384    2.5668    0.6093 H   0  0  0  0  0  0  0  0  0  0  0  0
   -3.9845    3.4002    0.8404 H   0  0  0  0  0  0  0  0  0  0  0  0
   -6.3495    2.5264    0.9414 H   0  0  0  0  0  0  0  0  0  0  0  0
   -7.7835   -0.0046    0.7450 H   0  0  0  0  0  0  0  0  0  0  0  0
   -4.7497   -2.6563   -0.0199 H   0  0  0  0  0  0  0  0  0  0  0  0
   -0.0130    3.1211   -0.8418 H   0  0  0  0  0  0  0  0  0  0  0  0
    1.5666    4.9503   -0.6653 H   0  0  0  0  0  0  0  0  0  0  0  0
    3.9289    4.5021   -0.0584 H   0  0  0  0  0  0  0  0  0  0  0  0
    4.6803    2.2252    0.3169 H   0  0  0  0  0  0  0  0  0  0  0  0
    2.6308   -2.1515    0.0761 H   0  0  0  0  0  0  0  0  0  0  0  0
    1.1719   -3.7381   -0.7970 H   0  0  0  0  0  0  0  0  0  0  0  0
    7.5101   -0.1230   -0.9922 H   0  0  0  0  0  0  0  0  0  0  0  0
    6.4129   -2.1891    2.3868 H   0  0  0  0  0  0  0  0  0  0  0  0
  1  2  1  0
  2  3  2  0
  3  4  1  0
  4  5  2  0
  5  6  1  0
  6  7  1  0
  7  8  1  0
  8  9  2  0
  9 10  1  0
 10 11  2  0
 11 12  1  0
 12 13  1  0
 13 14  2  0
 14 15  1  0
  5 16  1  0
 16 17  2  0
 17 18  1  0
 18 19  2  0
 19 20  1  0
 20 21  2  0
 21 22  1  0
 22 23  2  0
 23 24  1  0
 24 25  2  0
 25 26  1  0
 26 27  2  0
 23 28  1  0
 28 29  2  0
 29 30  1  0
 30 31  2  0
 31 32  1  0
 32 33  2  0
 27  1  1  0
 33 28  1  0
 26  3  1  0
 15  4  1  0
 25 16  1  0
 15  7  2  0
 22 17  1  0
 14 10  1  0
  1 34  1  0
  1 35  1  0
  2 36  1  0
  6 37  1  0
  8 38  1  0
  9 39  1  0
 11 40  1  0
 13 41  1  0
 18 42  1  0
 19 43  1  0
 20 44  1  0
 21 45  1  0
 24 46  1  0
 27 47  1  0
 30 48  1  0
 32 49  1  0
M  END
