
     RDKit          3D

 42 48  0  0  0  0  0  0  0  0999 V2000
    1.4116   -3.7120   -1.9772 Si  0  0  0  0  0  4  0  0  0  0  0  0
    0.2906   -2.5034   -1.1126 C   0  0  0  0  0  0  0  0  0  0  0  0
    0.9754   -1.4499   -0.6181 C   0  0  0  0  0  0  0  0  0  0  0  0
    0.3713   -0.3344    0.1181 C   0  0  0  0  0  0  0  0  0  0  0  0
    1.1735    0.6596    0.5613 C   0  0  0  0  0  0  0  0  0  0  0  0
    2.6261    0.6449    0.3356 C   0  0  0  0  0  0  0  0  0  0  0  0
    3.4987    1.6545    0.7863 C   0  0  0  0  0  0  0  0  0  0  0  0
    3.1317    2.7771    1.4936 C   0  0  0  0  0  0  0  0  0  0  0  0
    4.4823    3.7771    1.8647 S   0  0  0  0  0  0  0  0  0  0  0  0
    5.5779    2.7132    1.0810 C   0  0  0  0  0  0  0  0  0  0  0  0
    4.9241    1.6276    0.5528 C   0  0  0  0  0  0  0  0  0  0  0  0
    5.6006    0.6211   -0.1329 C   0  0  0  0  0  0  0  0  0  0  0  0
    4.7274   -0.3939   -0.5857 C   0  0  0  0  0  0  0  0  0  0  0  0
    3.3049   -0.4000   -0.3718 C   0  0  0  0  0  0  0  0  0  0  0  0
    2.4389   -1.4996   -0.8727 C   0  0  0  0  0  0  0  0  0  0  0  0
    2.8470   -2.5882   -1.5593 C   0  0  0  0  0  0  0  0  0  0  0  0
   -1.0304   -0.1967    0.3811 C   0  0  0  0  0  0  0  0  0  0  0  0
   -2.0240    0.2627   -0.4686 C   0  0  0  0  0  0  0  0  0  0  0  0
   -3.2662    0.2229    0.1781 C   0  0  0  0  0  0  0  0  0  0  0  0
   -3.2887   -0.2468    1.4816 C   0  0  0  0  0  0  0  0  0  0  0  0
   -4.4855   -0.3426    2.2608 C   0  0  0  0  0  0  0  0  0  0  0  0
   -5.7472    0.0392    1.7509 C   0  0  0  0  0  0  0  0  0  0  0  0
   -5.6550    0.4975    0.4463 C   0  0  0  0  0  0  0  0  0  0  0  0
   -6.6932    0.9425   -0.3362 C   0  0  0  0  0  0  0  0  0  0  0  0
   -6.2252    1.3180   -1.5743 O   0  0  0  0  0  0  0  0  0  0  0  0
   -4.8663    1.1103   -1.5843 C   0  0  0  0  0  0  0  0  0  0  0  0
   -4.5221    0.6155   -0.3663 C   0  0  0  0  0  0  0  0  0  0  0  0
   -1.6724   -0.6615    1.9211 S   0  0  0  0  0  0  0  0  0  0  0  0
    1.1604   -3.7799   -3.4369 H   0  0  0  0  0  0  0  0  0  0  0  0
    1.4980   -5.0172   -1.2796 H   0  0  0  0  0  0  0  0  0  0  0  0
   -0.7707   -2.6842   -1.0437 H   0  0  0  0  0  0  0  0  0  0  0  0
    0.7506    1.5015    1.0981 H   0  0  0  0  0  0  0  0  0  0  0  0
    2.1534    3.0909    1.8273 H   0  0  0  0  0  0  0  0  0  0  0  0
    6.6330    2.9489    1.0560 H   0  0  0  0  0  0  0  0  0  0  0  0
    6.6676    0.5939   -0.3113 H   0  0  0  0  0  0  0  0  0  0  0  0
    5.1842   -1.2183   -1.1313 H   0  0  0  0  0  0  0  0  0  0  0  0
    3.8445   -2.8554   -1.8642 H   0  0  0  0  0  0  0  0  0  0  0  0
   -1.8339    0.5961   -1.4810 H   0  0  0  0  0  0  0  0  0  0  0  0
   -4.4213   -0.7227    3.2793 H   0  0  0  0  0  0  0  0  0  0  0  0
   -6.6586   -0.0285    2.3293 H   0  0  0  0  0  0  0  0  0  0  0  0
   -7.7586    1.0572   -0.1945 H   0  0  0  0  0  0  0  0  0  0  0  0
   -4.3543    1.3630   -2.5010 H   0  0  0  0  0  0  0  0  0  0  0  0
  1  2  1  0
  2  3  2  0
  3  4  1  0
  4  5  2  0
  5  6  1  0
  6  7  1  0
  7  8  2  0
  8  9  1  0
  9 10  1  0
 10 11  2  0
 11 12  1  0
 12 13  2  0
 13 14  1  0
 14 15  1  0
 15 16  2  0
  4 17  1  0
 17 18  2  0
 18 19  1  0
 19 20  2  0
 20 21  1  0
 21 22  2  0
 22 23  1  0
 23 24  2  0
 24 25  1  0
 25 26  1  0
 26 27  2  0
 20 28  1  0
 16  1  1  0
 28 17  1  0
 15  3  1  0
 27 19  1  0
 14  6  2  0
 27 23  1  0
 11  7  1  0
  1 29  1  0
  1 30  1  0
  2 31  1  0
  5 32  1  0
  8 33  1  0
 10 34  1  0
 12 35  1  0
 13 36  1  0
 16 37  1  0
 18 38  1  0
 21 39  1  0
 22 40  1  0
 24 41  1  0
 26 42  1  0
M  END
