
     RDKit          3D

 44 50  0  0  0  0  0  0  0  0999 V2000
   -0.0726   -0.7731    3.6014 C   0  0  0  0  0  0  0  0  0  0  0  0
    1.1460   -0.8069    2.7325 C   0  0  0  0  0  0  0  0  0  0  0  0
    0.8020   -0.5056    1.4714 C   0  0  0  0  0  0  0  0  0  0  0  0
    1.6615   -0.2484    0.3394 C   0  0  0  0  0  0  0  0  0  0  0  0
    3.1082   -0.4425    0.2289 C   0  0  0  0  0  0  0  0  0  0  0  0
    3.6596   -0.0927   -0.9532 C   0  0  0  0  0  0  0  0  0  0  0  0
    2.3236    0.5791   -2.1185 Si  0  0  0  0  0  4  0  0  0  0  0  0
    1.0774    0.2746   -0.7680 C   0  0  0  0  0  0  0  0  0  0  0  0
   -0.3696    0.5207   -0.9054 C   0  0  0  0  0  0  0  0  0  0  0  0
   -0.7591    1.1291   -2.0482 N   0  0  0  0  0  0  0  0  0  0  0  0
   -2.0856    1.3101   -2.2341 C   0  0  0  0  0  0  0  0  0  0  0  0
   -3.0936    0.8423   -1.3988 C   0  0  0  0  0  0  0  0  0  0  0  0
   -4.4735    1.0650   -1.7769 C   0  0  0  0  0  0  0  0  0  0  0  0
   -5.5952    0.5722   -1.0829 C   0  0  0  0  0  0  0  0  0  0  0  0
   -5.1807   -0.2055   -0.0194 C   0  0  0  0  0  0  0  0  0  0  0  0
   -6.0220   -0.9384    0.7768 C   0  0  0  0  0  0  0  0  0  0  0  0
   -5.2238   -1.6630    1.6297 N   0  0  0  0  0  0  0  0  0  0  0  0
   -3.8945   -1.4020    1.3687 C   0  0  0  0  0  0  0  0  0  0  0  0
   -3.8299   -0.4286    0.3987 C   0  0  0  0  0  0  0  0  0  0  0  0
   -2.6670    0.1384   -0.2178 C   0  0  0  0  0  0  0  0  0  0  0  0
   -1.2721    0.0893    0.0989 C   0  0  0  0  0  0  0  0  0  0  0  0
   -0.6495   -0.3117    1.3833 C   0  0  0  0  0  0  0  0  0  0  0  0
   -1.1486   -0.3883    2.6291 C   0  0  0  0  0  0  0  0  0  0  0  0
    5.0478   -0.1754   -1.2457 C   0  0  0  0  0  0  0  0  0  0  0  0
    6.1230   -0.0800   -0.3713 C   0  0  0  0  0  0  0  0  0  0  0  0
    7.3908   -0.2232   -1.0055 C   0  0  0  0  0  0  0  0  0  0  0  0
    7.2635   -0.4336   -2.3567 C   0  0  0  0  0  0  0  0  0  0  0  0
    5.6309   -0.4575   -2.8482 S   0  0  0  0  0  0  0  0  0  0  0  0
    0.0299   -0.0199    4.3883 H   0  0  0  0  0  0  0  0  0  0  0  0
   -0.2725   -1.7506    4.0495 H   0  0  0  0  0  0  0  0  0  0  0  0
    2.1471   -0.9634    3.1028 H   0  0  0  0  0  0  0  0  0  0  0  0
    3.6656   -0.8493    1.0632 H   0  0  0  0  0  0  0  0  0  0  0  0
    2.5538    2.0193   -2.4144 H   0  0  0  0  0  0  0  0  0  0  0  0
    2.1438   -0.3029   -3.3034 H   0  0  0  0  0  0  0  0  0  0  0  0
   -2.3244    1.8447   -3.1516 H   0  0  0  0  0  0  0  0  0  0  0  0
   -4.6750    1.6420   -2.6823 H   0  0  0  0  0  0  0  0  0  0  0  0
   -6.6157    0.7316   -1.3987 H   0  0  0  0  0  0  0  0  0  0  0  0
   -7.0978   -1.0489    0.7954 H   0  0  0  0  0  0  0  0  0  0  0  0
   -5.5586   -2.3358    2.3073 H   0  0  0  0  0  0  0  0  0  0  0  0
   -3.1360   -1.9683    1.8883 H   0  0  0  0  0  0  0  0  0  0  0  0
   -2.1588   -0.1664    2.9331 H   0  0  0  0  0  0  0  0  0  0  0  0
    6.0053    0.0973    0.6911 H   0  0  0  0  0  0  0  0  0  0  0  0
    8.3442   -0.1741   -0.4944 H   0  0  0  0  0  0  0  0  0  0  0  0
    8.0522   -0.5764   -3.0824 H   0  0  0  0  0  0  0  0  0  0  0  0
  1  2  1  0
  2  3  2  0
  3  4  1  0
  4  5  1  0
  5  6  2  0
  6  7  1  0
  7  8  1  0
  8  9  1  0
  9 10  2  0
 10 11  1  0
 11 12  2  0
 12 13  1  0
 13 14  2  0
 14 15  1  0
 15 16  2  0
 16 17  1  0
 17 18  1  0
 18 19  2  0
 19 20  1  0
 20 21  2  0
 21 22  1  0
 22 23  2  0
  6 24  1  0
 24 25  2  0
 25 26  1  0
 26 27  2  0
 27 28  1  0
 23  1  1  0
 28 24  1  0
 22  3  1  0
  8  4  2  0
 21  9  1  0
 20 12  1  0
 19 15  1  0
  1 29  1  0
  1 30  1  0
  2 31  1  0
  5 32  1  0
  7 33  1  0
  7 34  1  0
 11 35  1  0
 13 36  1  0
 14 37  1  0
 16 38  1  0
 17 39  1  0
 18 40  1  0
 23 41  1  0
 25 42  1  0
 26 43  1  0
 27 44  1  0
M  END
