
     RDKit          3D

 48 55  0  0  0  0  0  0  0  0999 V2000
    2.0758   -3.5826    1.1252 C   0  0  0  0  0  0  0  0  0  0  0  0
    0.6470   -3.1831    0.9259 C   0  0  0  0  0  0  0  0  0  0  0  0
    0.5865   -1.8750    0.6356 C   0  0  0  0  0  0  0  0  0  0  0  0
   -0.5780   -1.0260    0.5449 C   0  0  0  0  0  0  0  0  0  0  0  0
   -1.9904   -1.4100    0.5369 C   0  0  0  0  0  0  0  0  0  0  0  0
   -2.8651   -0.3857    0.4701 C   0  0  0  0  0  0  0  0  0  0  0  0
   -1.9590    1.2654    0.4230 Si  0  0  0  0  0  4  0  0  0  0  0  0
   -0.3587    0.3126    0.4895 C   0  0  0  0  0  0  0  0  0  0  0  0
    0.9775    0.9321    0.4398 C   0  0  0  0  0  0  0  0  0  0  0  0
    1.0059    2.2819    0.4869 N   0  0  0  0  0  0  0  0  0  0  0  0
    2.2138    2.8795    0.3917 C   0  0  0  0  0  0  0  0  0  0  0  0
    3.4201    2.2342    0.1420 C   0  0  0  0  0  0  0  0  0  0  0  0
    4.6157    3.0277    0.0154 C   0  0  0  0  0  0  0  0  0  0  0  0
    5.8847    2.5251   -0.3220 C   0  0  0  0  0  0  0  0  0  0  0  0
    5.8249    1.1664   -0.5952 C   0  0  0  0  0  0  0  0  0  0  0  0
    6.9239    0.4878   -1.0629 C   0  0  0  0  0  0  0  0  0  0  0  0
    6.5258   -1.1303   -1.4610 S   0  0  0  0  0  0  0  0  0  0  0  0
    4.8818   -0.9031   -1.0132 C   0  0  0  0  0  0  0  0  0  0  0  0
    4.6472    0.3364   -0.4613 C   0  0  0  0  0  0  0  0  0  0  0  0
    3.3683    0.8043    0.0069 C   0  0  0  0  0  0  0  0  0  0  0  0
    2.1390    0.1306    0.3033 C   0  0  0  0  0  0  0  0  0  0  0  0
    1.9410   -1.3182    0.5558 C   0  0  0  0  0  0  0  0  0  0  0  0
    2.8026   -2.2854    0.9174 C   0  0  0  0  0  0  0  0  0  0  0  0
   -4.2729   -0.5090    0.4506 C   0  0  0  0  0  0  0  0  0  0  0  0
   -5.0935   -1.4785    1.6521 S   0  0  0  0  0  0  0  0  0  0  0  0
   -6.6593   -1.1522    1.0096 C   0  0  0  0  0  0  0  0  0  0  0  0
   -6.5399   -0.3408   -0.0738 C   0  0  0  0  0  0  0  0  0  0  0  0
   -7.4342    0.2424   -1.0043 C   0  0  0  0  0  0  0  0  0  0  0  0
   -6.7291    0.9639   -1.9045 C   0  0  0  0  0  0  0  0  0  0  0  0
   -5.2269    0.9072   -1.6089 C   0  0  0  0  0  0  0  0  0  0  0  0
   -5.2138    0.0325   -0.3962 C   0  0  0  0  0  0  0  0  0  0  0  0
    2.3875   -4.3345    0.3946 H   0  0  0  0  0  0  0  0  0  0  0  0
    2.2374   -3.9622    2.1384 H   0  0  0  0  0  0  0  0  0  0  0  0
   -0.1925   -3.8415    1.0883 H   0  0  0  0  0  0  0  0  0  0  0  0
   -2.2789   -2.4532    0.5741 H   0  0  0  0  0  0  0  0  0  0  0  0
   -2.2401    2.0739    1.6394 H   0  0  0  0  0  0  0  0  0  0  0  0
   -2.1968    1.9583   -0.8738 H   0  0  0  0  0  0  0  0  0  0  0  0
    2.1693    3.9622    0.4943 H   0  0  0  0  0  0  0  0  0  0  0  0
    4.5442    4.1060    0.1764 H   0  0  0  0  0  0  0  0  0  0  0  0
    6.7598    3.1533   -0.4215 H   0  0  0  0  0  0  0  0  0  0  0  0
    7.9275    0.8536   -1.2321 H   0  0  0  0  0  0  0  0  0  0  0  0
    4.1916   -1.7100   -1.2056 H   0  0  0  0  0  0  0  0  0  0  0  0
    3.8625   -2.1800    1.0873 H   0  0  0  0  0  0  0  0  0  0  0  0
   -7.5454   -1.5757    1.4601 H   0  0  0  0  0  0  0  0  0  0  0  0
   -8.5079    0.1205   -0.9904 H   0  0  0  0  0  0  0  0  0  0  0  0
   -7.1525    1.5158   -2.7303 H   0  0  0  0  0  0  0  0  0  0  0  0
   -4.8431    1.9086   -1.3966 H   0  0  0  0  0  0  0  0  0  0  0  0
   -4.6832    0.4545   -2.4427 H   0  0  0  0  0  0  0  0  0  0  0  0
  1  2  1  0
  2  3  2  0
  3  4  1  0
  4  5  1  0
  5  6  2  0
  6  7  1  0
  7  8  1  0
  8  9  1  0
  9 10  2  0
 10 11  1  0
 11 12  2  0
 12 13  1  0
 13 14  2  0
 14 15  1  0
 15 16  2  0
 16 17  1  0
 17 18  1  0
 18 19  2  0
 19 20  1  0
 20 21  2  0
 21 22  1  0
 22 23  2  0
  6 24  1  0
 24 25  1  0
 25 26  1  0
 26 27  2  0
 27 28  1  0
 28 29  2  0
 29 30  1  0
 30 31  1  0
 23  1  1  0
 31 24  2  0
 22  3  1  0
 31 27  1  0
  8  4  2  0
 21  9  1  0
 20 12  1  0
 19 15  1  0
  1 32  1  0
  1 33  1  0
  2 34  1  0
  5 35  1  0
  7 36  1  0
  7 37  1  0
 11 38  1  0
 13 39  1  0
 14 40  1  0
 16 41  1  0
 18 42  1  0
 23 43  1  0
 26 44  1  0
 28 45  1  0
 29 46  1  0
 30 47  1  0
 30 48  1  0
M  END
