
     RDKit          3D

 48 54  0  0  0  0  0  0  0  0999 V2000
   -0.4586    3.3063    3.2018 C   0  0  0  0  0  0  0  0  0  0  0  0
    0.7499    2.6694    2.5995 C   0  0  0  0  0  0  0  0  0  0  0  0
    0.3623    1.7532    1.7007 C   0  0  0  0  0  0  0  0  0  0  0  0
    1.1675    0.8403    0.9551 C   0  0  0  0  0  0  0  0  0  0  0  0
    2.5986    0.8156    0.7612 C   0  0  0  0  0  0  0  0  0  0  0  0
    2.9236   -0.1736   -0.0819 C   0  0  0  0  0  0  0  0  0  0  0  0
    1.6639   -0.9128   -0.4660 C   0  0  0  0  0  0  0  0  0  0  0  0
    0.5750   -0.1506    0.2494 C   0  0  0  0  0  0  0  0  0  0  0  0
   -0.9253   -0.3028    0.1110 C   0  0  0  0  0  0  0  0  0  0  0  0
   -1.5471   -1.3826   -0.6307 C   0  0  0  0  0  0  0  0  0  0  0  0
   -0.8922   -2.5812   -1.0286 C   0  0  0  0  0  0  0  0  0  0  0  0
   -1.5007   -3.5923   -1.7780 C   0  0  0  0  0  0  0  0  0  0  0  0
   -2.8178   -3.4581   -2.1551 C   0  0  0  0  0  0  0  0  0  0  0  0
   -3.5193   -2.3269   -1.7542 C   0  0  0  0  0  0  0  0  0  0  0  0
   -2.9252   -1.2918   -0.9848 C   0  0  0  0  0  0  0  0  0  0  0  0
   -3.6682   -0.1693   -0.5633 C   0  0  0  0  0  0  0  0  0  0  0  0
   -5.0922    0.0904   -0.9164 C   0  0  0  0  0  0  0  0  0  0  0  0
   -5.6071    1.2279   -0.4267 C   0  0  0  0  0  0  0  0  0  0  0  0
   -4.3844    2.1741    0.5829 Si  0  0  0  0  0  4  0  0  0  0  0  0
   -3.0869    0.8303    0.2701 C   0  0  0  0  0  0  0  0  0  0  0  0
   -1.7440    0.7548    0.6639 C   0  0  0  0  0  0  0  0  0  0  0  0
   -1.0900    1.7195    1.5947 C   0  0  0  0  0  0  0  0  0  0  0  0
   -1.5768    2.5911    2.4986 C   0  0  0  0  0  0  0  0  0  0  0  0
    4.2310   -0.5222   -0.5559 C   0  0  0  0  0  0  0  0  0  0  0  0
    4.5545   -1.5155   -1.4018 C   0  0  0  0  0  0  0  0  0  0  0  0
    5.9778   -1.5265   -1.6226 C   0  0  0  0  0  0  0  0  0  0  0  0
    6.5457   -0.5405   -0.9156 C   0  0  0  0  0  0  0  0  0  0  0  0
    5.4897    0.2105   -0.1557 C   0  0  0  0  0  0  0  0  0  0  0  0
   -0.4872    4.3808    2.9998 H   0  0  0  0  0  0  0  0  0  0  0  0
   -0.4995    3.1317    4.2810 H   0  0  0  0  0  0  0  0  0  0  0  0
    1.7645    2.8889    2.8927 H   0  0  0  0  0  0  0  0  0  0  0  0
    3.2727    1.5248    1.2155 H   0  0  0  0  0  0  0  0  0  0  0  0
    1.7569   -1.9347   -0.0879 H   0  0  0  0  0  0  0  0  0  0  0  0
    1.5156   -0.9017   -1.5508 H   0  0  0  0  0  0  0  0  0  0  0  0
    0.1184   -2.7973   -0.7172 H   0  0  0  0  0  0  0  0  0  0  0  0
   -0.9399   -4.4831   -2.0478 H   0  0  0  0  0  0  0  0  0  0  0  0
   -3.3091   -4.2325   -2.7368 H   0  0  0  0  0  0  0  0  0  0  0  0
   -4.5630   -2.2766   -2.0506 H   0  0  0  0  0  0  0  0  0  0  0  0
   -5.6721   -0.5813   -1.5324 H   0  0  0  0  0  0  0  0  0  0  0  0
   -6.6139    1.5851   -0.5800 H   0  0  0  0  0  0  0  0  0  0  0  0
   -4.0354    3.4763   -0.0382 H   0  0  0  0  0  0  0  0  0  0  0  0
   -4.8085    2.2588    2.0040 H   0  0  0  0  0  0  0  0  0  0  0  0
   -2.6029    2.7763    2.7613 H   0  0  0  0  0  0  0  0  0  0  0  0
    3.8796   -2.2176   -1.8673 H   0  0  0  0  0  0  0  0  0  0  0  0
    6.4876   -2.2295   -2.2638 H   0  0  0  0  0  0  0  0  0  0  0  0
    7.5997   -0.3102   -0.8884 H   0  0  0  0  0  0  0  0  0  0  0  0
    5.6700    0.1453    0.9221 H   0  0  0  0  0  0  0  0  0  0  0  0
    5.4630    1.2598   -0.4669 H   0  0  0  0  0  0  0  0  0  0  0  0
  1  2  1  0
  2  3  2  0
  3  4  1  0
  4  5  1  0
  5  6  2  0
  6  7  1  0
  7  8  1  0
  8  9  1  0
  9 10  2  0
 10 11  1  0
 11 12  2  0
 12 13  1  0
 13 14  2  0
 14 15  1  0
 15 16  2  0
 16 17  1  0
 17 18  2  0
 18 19  1  0
 19 20  1  0
 20 21  2  0
 21 22  1  0
 22 23  2  0
  6 24  1  0
 24 25  2  0
 25 26  1  0
 26 27  2  0
 27 28  1  0
 23  1  1  0
 28 24  1  0
 22  3  1  0
  8  4  2  0
 21  9  1  0
 15 10  1  0
 20 16  1  0
  1 29  1  0
  1 30  1  0
  2 31  1  0
  5 32  1  0
  7 33  1  0
  7 34  1  0
 11 35  1  0
 12 36  1  0
 13 37  1  0
 14 38  1  0
 17 39  1  0
 18 40  1  0
 19 41  1  0
 19 42  1  0
 23 43  1  0
 25 44  1  0
 26 45  1  0
 27 46  1  0
 28 47  1  0
 28 48  1  0
M  END
