
     RDKit          3D

 40 46  0  0  0  0  0  0  0  0999 V2000
   -1.9903    3.5415   -1.2756 C   0  0  0  0  0  0  0  0  0  0  0  0
   -0.5723    3.0845   -1.0885 C   0  0  0  0  0  0  0  0  0  0  0  0
   -0.5656    1.8187   -0.6461 C   0  0  0  0  0  0  0  0  0  0  0  0
    0.5477    0.9616   -0.3251 C   0  0  0  0  0  0  0  0  0  0  0  0
    1.9756    1.1854   -0.3758 C   0  0  0  0  0  0  0  0  0  0  0  0
    2.6393    0.0823    0.0224 C   0  0  0  0  0  0  0  0  0  0  0  0
    1.6163   -0.9889    0.3771 C   0  0  0  0  0  0  0  0  0  0  0  0
    0.3152   -0.2962    0.1100 C   0  0  0  0  0  0  0  0  0  0  0  0
   -1.0448   -0.8397    0.2735 C   0  0  0  0  0  0  0  0  0  0  0  0
   -1.2926   -2.1644    0.7317 C   0  0  0  0  0  0  0  0  0  0  0  0
   -0.3914   -3.1087    1.0792 N   0  0  0  0  0  0  0  0  0  0  0  0
   -1.2449   -4.4727    1.5392 S   0  0  0  0  0  0  0  0  0  0  0  0
   -2.8192   -3.9411    1.3228 N   0  0  0  0  0  0  0  0  0  0  0  0
   -2.6405   -2.7020    0.8933 C   0  0  0  0  0  0  0  0  0  0  0  0
   -3.7274   -1.8441    0.5723 C   0  0  0  0  0  0  0  0  0  0  0  0
   -5.1008   -2.0790    0.6276 C   0  0  0  0  0  0  0  0  0  0  0  0
   -5.6530   -0.8892    0.2011 C   0  0  0  0  0  0  0  0  0  0  0  0
   -4.6845    0.0273   -0.1003 O   0  0  0  0  0  0  0  0  0  0  0  0
   -3.4680   -0.5671    0.1311 C   0  0  0  0  0  0  0  0  0  0  0  0
   -2.1867   -0.0270   -0.0326 C   0  0  0  0  0  0  0  0  0  0  0  0
   -1.9446    1.3436   -0.5069 C   0  0  0  0  0  0  0  0  0  0  0  0
   -2.7803    2.3306   -0.8679 C   0  0  0  0  0  0  0  0  0  0  0  0
    4.0532   -0.0283    0.0880 C   0  0  0  0  0  0  0  0  0  0  0  0
    4.8732   -1.0758    0.4695 C   0  0  0  0  0  0  0  0  0  0  0  0
    6.2179   -0.6515    0.3469 C   0  0  0  0  0  0  0  0  0  0  0  0
    6.1930    0.6459   -0.1066 C   0  0  0  0  0  0  0  0  0  0  0  0
    4.8807    1.0147   -0.2605 N   0  0  0  0  0  0  0  0  0  0  0  0
   -2.2174    4.3951   -0.6304 H   0  0  0  0  0  0  0  0  0  0  0  0
   -2.1847    3.8050   -2.3194 H   0  0  0  0  0  0  0  0  0  0  0  0
    0.2932    3.6972   -1.2858 H   0  0  0  0  0  0  0  0  0  0  0  0
    2.3895    2.1274   -0.6971 H   0  0  0  0  0  0  0  0  0  0  0  0
    1.7136   -1.2728    1.4303 H   0  0  0  0  0  0  0  0  0  0  0  0
    1.7462   -1.8656   -0.2662 H   0  0  0  0  0  0  0  0  0  0  0  0
   -5.6298   -2.9719    0.9293 H   0  0  0  0  0  0  0  0  0  0  0  0
   -6.6693   -0.5464    0.0614 H   0  0  0  0  0  0  0  0  0  0  0  0
   -3.8586    2.2901   -0.8746 H   0  0  0  0  0  0  0  0  0  0  0  0
    4.5368   -2.0492    0.8030 H   0  0  0  0  0  0  0  0  0  0  0  0
    7.1052   -1.2309    0.5662 H   0  0  0  0  0  0  0  0  0  0  0  0
    6.9917    1.3390   -0.3335 H   0  0  0  0  0  0  0  0  0  0  0  0
    4.5785    1.9226   -0.5832 H   0  0  0  0  0  0  0  0  0  0  0  0
  1  2  1  0
  2  3  2  0
  3  4  1  0
  4  5  1  0
  5  6  2  0
  6  7  1  0
  7  8  1  0
  8  9  1  0
  9 10  1  0
 10 11  2  0
 11 12  1  0
 12 13  1  0
 13 14  2  0
 14 15  1  0
 15 16  1  0
 16 17  2  0
 17 18  1  0
 18 19  1  0
 19 20  1  0
 20 21  1  0
 21 22  2  0
  6 23  1  0
 23 24  2  0
 24 25  1  0
 25 26  2  0
 26 27  1  0
 22  1  1  0
 27 23  1  0
 21  3  1  0
  8  4  2  0
 20  9  2  0
 14 10  1  0
 19 15  2  0
  1 28  1  0
  1 29  1  0
  2 30  1  0
  5 31  1  0
  7 32  1  0
  7 33  1  0
 16 34  1  0
 17 35  1  0
 22 36  1  0
 24 37  1  0
 25 38  1  0
 26 39  1  0
 27 40  1  0
M  END
