
     RDKit          3D

 47 54  0  0  0  0  0  0  0  0999 V2000
    1.4089    3.6044    2.3440 Si  0  0  0  0  0  4  0  0  0  0  0  0
    0.3264    2.3363    1.5207 C   0  0  0  0  0  0  0  0  0  0  0  0
    1.0544    1.3971    0.8807 C   0  0  0  0  0  0  0  0  0  0  0  0
    0.4910    0.2689    0.1389 C   0  0  0  0  0  0  0  0  0  0  0  0
    1.3274   -0.6150   -0.4466 C   0  0  0  0  0  0  0  0  0  0  0  0
    2.7873   -0.4599   -0.3735 C   0  0  0  0  0  0  0  0  0  0  0  0
    3.7000   -1.3466   -0.9766 C   0  0  0  0  0  0  0  0  0  0  0  0
    3.3693   -2.4659   -1.7067 C   0  0  0  0  0  0  0  0  0  0  0  0
    4.7622   -3.2958   -2.2834 S   0  0  0  0  0  0  0  0  0  0  0  0
    5.8277   -2.1619   -1.5583 C   0  0  0  0  0  0  0  0  0  0  0  0
    5.1328   -1.1797   -0.8969 C   0  0  0  0  0  0  0  0  0  0  0  0
    5.7784   -0.1424   -0.2274 C   0  0  0  0  0  0  0  0  0  0  0  0
    4.8650    0.7496    0.3792 C   0  0  0  0  0  0  0  0  0  0  0  0
    3.4340    0.6148    0.3205 C   0  0  0  0  0  0  0  0  0  0  0  0
    2.5249    1.5887    0.9812 C   0  0  0  0  0  0  0  0  0  0  0  0
    2.8959    2.6729    1.6953 C   0  0  0  0  0  0  0  0  0  0  0  0
   -0.9420    0.0056    0.0058 C   0  0  0  0  0  0  0  0  0  0  0  0
   -1.6882   -0.8477    0.8485 C   0  0  0  0  0  0  0  0  0  0  0  0
   -3.1129   -1.0836    0.6992 C   0  0  0  0  0  0  0  0  0  0  0  0
   -3.8290   -1.9616    1.5805 C   0  0  0  0  0  0  0  0  0  0  0  0
   -3.3126   -2.6542    2.6133 N   0  0  0  0  0  0  0  0  0  0  0  0
   -4.5598   -3.5061    3.2958 S   0  0  0  0  0  0  0  0  0  0  0  0
   -5.8222   -3.0467    2.3233 N   0  0  0  0  0  0  0  0  0  0  0  0
   -5.3155   -2.1990    1.4144 C   0  0  0  0  0  0  0  0  0  0  0  0
   -6.0596   -1.5689    0.3884 C   0  0  0  0  0  0  0  0  0  0  0  0
   -5.3475   -0.7142   -0.4646 C   0  0  0  0  0  0  0  0  0  0  0  0
   -3.9435   -0.4795   -0.3206 C   0  0  0  0  0  0  0  0  0  0  0  0
   -3.1520    0.3666   -1.1355 C   0  0  0  0  0  0  0  0  0  0  0  0
   -3.5704    1.1179   -2.2083 C   0  0  0  0  0  0  0  0  0  0  0  0
   -2.4676    1.7845   -2.6999 N   0  0  0  0  0  0  0  0  0  0  0  0
   -1.3518    1.4704   -1.9576 C   0  0  0  0  0  0  0  0  0  0  0  0
   -1.7455    0.5911   -0.9778 C   0  0  0  0  0  0  0  0  0  0  0  0
    1.3240    3.5651    3.8238 H   0  0  0  0  0  0  0  0  0  0  0  0
    1.2836    4.9504    1.7338 H   0  0  0  0  0  0  0  0  0  0  0  0
   -0.7489    2.3980    1.5813 H   0  0  0  0  0  0  0  0  0  0  0  0
    0.9279   -1.4619   -0.9931 H   0  0  0  0  0  0  0  0  0  0  0  0
    2.3953   -2.8655   -1.9486 H   0  0  0  0  0  0  0  0  0  0  0  0
    6.8970   -2.2851   -1.6615 H   0  0  0  0  0  0  0  0  0  0  0  0
    6.8505   -0.0113   -0.1628 H   0  0  0  0  0  0  0  0  0  0  0  0
    5.2952    1.5888    0.9235 H   0  0  0  0  0  0  0  0  0  0  0  0
    3.8893    3.0258    1.9141 H   0  0  0  0  0  0  0  0  0  0  0  0
   -1.1629   -1.3550    1.6599 H   0  0  0  0  0  0  0  0  0  0  0  0
   -7.1229   -1.7428    0.2745 H   0  0  0  0  0  0  0  0  0  0  0  0
   -5.8927   -0.2146   -1.2638 H   0  0  0  0  0  0  0  0  0  0  0  0
   -4.5359    1.2506   -2.6762 H   0  0  0  0  0  0  0  0  0  0  0  0
   -2.4755    2.4141   -3.4921 H   0  0  0  0  0  0  0  0  0  0  0  0
   -0.3895    1.9031   -2.1982 H   0  0  0  0  0  0  0  0  0  0  0  0
  1  2  1  0
  2  3  2  0
  3  4  1  0
  4  5  2  0
  5  6  1  0
  6  7  1  0
  7  8  2  0
  8  9  1  0
  9 10  1  0
 10 11  2  0
 11 12  1  0
 12 13  2  0
 13 14  1  0
 14 15  1  0
 15 16  2  0
  4 17  1  0
 17 18  2  0
 18 19  1  0
 19 20  1  0
 20 21  2  0
 21 22  1  0
 22 23  1  0
 23 24  2  0
 24 25  1  0
 25 26  2  0
 26 27  1  0
 27 28  1  0
 28 29  2  0
 29 30  1  0
 30 31  1  0
 31 32  2  0
 16  1  1  0
 32 17  1  0
 15  3  1  0
 27 19  2  0
 32 28  1  0
 14  6  2  0
 24 20  1  0
 11  7  1  0
  1 33  1  0
  1 34  1  0
  2 35  1  0
  5 36  1  0
  8 37  1  0
 10 38  1  0
 12 39  1  0
 13 40  1  0
 16 41  1  0
 18 42  1  0
 25 43  1  0
 26 44  1  0
 29 45  1  0
 30 46  1  0
 31 47  1  0
M  END
