
     RDKit          3D

 41 47  0  0  0  0  0  0  0  0999 V2000
   -0.9967    3.7964   -0.1339 C   0  0  0  0  0  0  0  0  0  0  0  0
   -2.3645    3.1977    0.0023 C   0  0  0  0  0  0  0  0  0  0  0  0
   -2.2681    1.8602    0.0688 C   0  0  0  0  0  0  0  0  0  0  0  0
   -3.3216    0.8734    0.2027 C   0  0  0  0  0  0  0  0  0  0  0  0
   -4.7600    1.1504    0.2961 C   0  0  0  0  0  0  0  0  0  0  0  0
   -5.5555    0.0750    0.4154 C   0  0  0  0  0  0  0  0  0  0  0  0
   -4.5395   -1.4777    0.4243 Si  0  0  0  0  0  4  0  0  0  0  0  0
   -2.9813   -0.4511    0.2500 C   0  0  0  0  0  0  0  0  0  0  0  0
   -1.5738   -0.9163    0.1694 C   0  0  0  0  0  0  0  0  0  0  0  0
   -1.0840   -2.2410    0.2054 C   0  0  0  0  0  0  0  0  0  0  0  0
   -1.7497   -3.4445    0.3220 C   0  0  0  0  0  0  0  0  0  0  0  0
   -0.8763   -4.5073    0.3146 O   0  0  0  0  0  0  0  0  0  0  0  0
    0.3878   -4.0028    0.1913 C   0  0  0  0  0  0  0  0  0  0  0  0
    0.2674   -2.6535    0.1260 C   0  0  0  0  0  0  0  0  0  0  0  0
    1.2701   -1.6748   -0.0036 C   0  0  0  0  0  0  0  0  0  0  0  0
    2.6521   -1.7653   -0.1030 C   0  0  0  0  0  0  0  0  0  0  0  0
    3.0679   -0.4449   -0.2072 C   0  0  0  0  0  0  0  0  0  0  0  0
    1.9808    0.4016   -0.1717 O   0  0  0  0  0  0  0  0  0  0  0  0
    0.8492   -0.3655   -0.0440 C   0  0  0  0  0  0  0  0  0  0  0  0
   -0.5006    0.0505    0.0350 C   0  0  0  0  0  0  0  0  0  0  0  0
   -0.8631    1.4741   -0.0161 C   0  0  0  0  0  0  0  0  0  0  0  0
   -0.1147    2.5840   -0.1337 C   0  0  0  0  0  0  0  0  0  0  0  0
    4.3779    0.1777   -0.3404 C   0  0  0  0  0  0  0  0  0  0  0  0
    4.4320    1.5093   -0.4179 N   0  0  0  0  0  0  0  0  0  0  0  0
    5.6629    1.9932   -0.5375 C   0  0  0  0  0  0  0  0  0  0  0  0
    6.7850    1.2775   -0.5828 N   0  0  0  0  0  0  0  0  0  0  0  0
    6.5953   -0.0373   -0.4960 C   0  0  0  0  0  0  0  0  0  0  0  0
    5.4238   -0.6539   -0.3736 N   0  0  0  0  0  0  0  0  0  0  0  0
   -0.9013    4.3535   -1.0704 H   0  0  0  0  0  0  0  0  0  0  0  0
   -0.7668    4.4517    0.7112 H   0  0  0  0  0  0  0  0  0  0  0  0
   -3.2731    3.7776    0.0390 H   0  0  0  0  0  0  0  0  0  0  0  0
   -5.1368    2.1652    0.2686 H   0  0  0  0  0  0  0  0  0  0  0  0
   -6.6307    0.0702    0.4969 H   0  0  0  0  0  0  0  0  0  0  0  0
   -4.7970   -2.3335   -0.7603 H   0  0  0  0  0  0  0  0  0  0  0  0
   -4.6097   -2.1968    1.7203 H   0  0  0  0  0  0  0  0  0  0  0  0
   -2.7774   -3.7555    0.4167 H   0  0  0  0  0  0  0  0  0  0  0  0
    1.1929   -4.7226    0.1702 H   0  0  0  0  0  0  0  0  0  0  0  0
    3.2927   -2.6352   -0.1035 H   0  0  0  0  0  0  0  0  0  0  0  0
    0.9602    2.6329   -0.2176 H   0  0  0  0  0  0  0  0  0  0  0  0
    5.7635    3.0712   -0.6045 H   0  0  0  0  0  0  0  0  0  0  0  0
    7.4806   -0.6637   -0.5284 H   0  0  0  0  0  0  0  0  0  0  0  0
  1  2  1  0
  2  3  2  0
  3  4  1  0
  4  5  1  0
  5  6  2  0
  6  7  1  0
  7  8  1  0
  8  9  1  0
  9 10  1  0
 10 11  2  0
 11 12  1  0
 12 13  1  0
 13 14  2  0
 14 15  1  0
 15 16  1  0
 16 17  2  0
 17 18  1  0
 18 19  1  0
 19 20  1  0
 20 21  1  0
 21 22  2  0
 17 23  1  0
 23 24  2  0
 24 25  1  0
 25 26  2  0
 26 27  1  0
 27 28  2  0
 22  1  1  0
 28 23  1  0
 21  3  1  0
  8  4  2  0
 20  9  2  0
 14 10  1  0
 19 15  2  0
  1 29  1  0
  1 30  1  0
  2 31  1  0
  5 32  1  0
  6 33  1  0
  7 34  1  0
  7 35  1  0
 11 36  1  0
 13 37  1  0
 16 38  1  0
 22 39  1  0
 25 40  1  0
 27 41  1  0
M  END
