
     RDKit          3D

 43 50  0  0  0  0  0  0  0  0999 V2000
   -2.8711   -3.3137   -1.1497 C   0  0  0  0  0  0  0  0  0  0  0  0
   -3.9337   -2.3545   -0.7197 C   0  0  0  0  0  0  0  0  0  0  0  0
   -3.3680   -1.1885   -0.3706 C   0  0  0  0  0  0  0  0  0  0  0  0
   -4.0225    0.0586   -0.0597 C   0  0  0  0  0  0  0  0  0  0  0  0
   -5.4490    0.2741    0.1919 C   0  0  0  0  0  0  0  0  0  0  0  0
   -5.8081    1.5398    0.4639 C   0  0  0  0  0  0  0  0  0  0  0  0
   -4.3202    2.6710    0.4199 Si  0  0  0  0  0  4  0  0  0  0  0  0
   -3.2477    1.1762   -0.0012 C   0  0  0  0  0  0  0  0  0  0  0  0
   -1.7671    1.1419   -0.1473 C   0  0  0  0  0  0  0  0  0  0  0  0
   -0.9726    2.3228   -0.2220 C   0  0  0  0  0  0  0  0  0  0  0  0
   -1.4077    3.5948   -0.2825 N   0  0  0  0  0  0  0  0  0  0  0  0
   -0.0905    4.5793   -0.4043 S   0  0  0  0  0  0  0  0  0  0  0  0
    1.1166    3.4555   -0.3649 N   0  0  0  0  0  0  0  0  0  0  0  0
    0.5352    2.2456   -0.2547 C   0  0  0  0  0  0  0  0  0  0  0  0
    1.2293    0.9969   -0.1416 C   0  0  0  0  0  0  0  0  0  0  0  0
    2.6600    1.0157   -0.1130 C   0  0  0  0  0  0  0  0  0  0  0  0
    3.4699   -0.1212    0.0714 C   0  0  0  0  0  0  0  0  0  0  0  0
    4.9265   -0.0705    0.0743 C   0  0  0  0  0  0  0  0  0  0  0  0
    5.4925    1.0087    0.6273 N   0  0  0  0  0  0  0  0  0  0  0  0
    6.8224    1.0238    0.5757 C   0  0  0  0  0  0  0  0  0  0  0  0
    7.5959    0.0934    0.0239 N   0  0  0  0  0  0  0  0  0  0  0  0
    6.9194   -0.9189   -0.5120 C   0  0  0  0  0  0  0  0  0  0  0  0
    5.5964   -1.0522   -0.5328 N   0  0  0  0  0  0  0  0  0  0  0  0
    2.7466   -1.3132    0.3252 C   0  0  0  0  0  0  0  0  0  0  0  0
    3.2771   -2.5063    0.6507 N   0  0  0  0  0  0  0  0  0  0  0  0
    2.0331   -3.5459    0.9361 S   0  0  0  0  0  0  0  0  0  0  0  0
    0.7509   -2.5507    0.6609 N   0  0  0  0  0  0  0  0  0  0  0  0
    1.2179   -1.3465    0.2853 C   0  0  0  0  0  0  0  0  0  0  0  0
    0.4101   -0.1792   -0.0443 C   0  0  0  0  0  0  0  0  0  0  0  0
   -1.0398   -0.1075   -0.1934 C   0  0  0  0  0  0  0  0  0  0  0  0
   -1.9110   -1.2872   -0.4763 C   0  0  0  0  0  0  0  0  0  0  0  0
   -1.6269   -2.4895   -1.0089 C   0  0  0  0  0  0  0  0  0  0  0  0
   -2.8404   -4.1955   -0.5035 H   0  0  0  0  0  0  0  0  0  0  0  0
   -3.0198   -3.6218   -2.1888 H   0  0  0  0  0  0  0  0  0  0  0  0
   -4.9906   -2.5633   -0.7732 H   0  0  0  0  0  0  0  0  0  0  0  0
   -6.1524   -0.5486    0.1654 H   0  0  0  0  0  0  0  0  0  0  0  0
   -6.7998    1.9035    0.6799 H   0  0  0  0  0  0  0  0  0  0  0  0
   -4.0364    3.2320    1.7655 H   0  0  0  0  0  0  0  0  0  0  0  0
   -4.4546    3.6493   -0.6889 H   0  0  0  0  0  0  0  0  0  0  0  0
    3.1710    1.9755   -0.2384 H   0  0  0  0  0  0  0  0  0  0  0  0
    7.3220    1.8758    1.0243 H   0  0  0  0  0  0  0  0  0  0  0  0
    7.4996   -1.7078   -0.9784 H   0  0  0  0  0  0  0  0  0  0  0  0
   -0.6627   -2.8515   -1.3260 H   0  0  0  0  0  0  0  0  0  0  0  0
  1  2  1  0
  2  3  2  0
  3  4  1  0
  4  5  1  0
  5  6  2  0
  6  7  1  0
  7  8  1  0
  8  9  1  0
  9 10  1  0
 10 11  2  0
 11 12  1  0
 12 13  1  0
 13 14  2  0
 14 15  1  0
 15 16  1  0
 16 17  2  0
 17 18  1  0
 18 19  2  0
 19 20  1  0
 20 21  2  0
 21 22  1  0
 22 23  2  0
 17 24  1  0
 24 25  2  0
 25 26  1  0
 26 27  1  0
 27 28  2  0
 28 29  1  0
 29 30  1  0
 30 31  1  0
 31 32  2  0
 32  1  1  0
 31  3  1  0
  8  4  2  0
 30  9  2  0
 14 10  1  0
 29 15  2  0
 23 18  1  0
 28 24  1  0
  1 33  1  0
  1 34  1  0
  2 35  1  0
  5 36  1  0
  6 37  1  0
  7 38  1  0
  7 39  1  0
 16 40  1  0
 20 41  1  0
 22 42  1  0
 32 43  1  0
M  END
