
     RDKit          3D

 42 47  0  0  0  0  0  0  0  0999 V2000
   -2.8700    3.5616   -0.5962 C   0  0  0  0  0  0  0  0  0  0  0  0
   -3.9570    2.6042   -0.2329 C   0  0  0  0  0  0  0  0  0  0  0  0
   -3.4289    1.3905   -0.0128 C   0  0  0  0  0  0  0  0  0  0  0  0
   -4.1228    0.1509    0.2391 C   0  0  0  0  0  0  0  0  0  0  0  0
   -5.5577   -0.0476    0.4576 C   0  0  0  0  0  0  0  0  0  0  0  0
   -5.9464   -1.3188    0.6601 C   0  0  0  0  0  0  0  0  0  0  0  0
   -4.4849   -2.4742    0.5953 Si  0  0  0  0  0  4  0  0  0  0  0  0
   -3.3789   -0.9864    0.2634 C   0  0  0  0  0  0  0  0  0  0  0  0
   -1.9019   -1.0087    0.1064 C   0  0  0  0  0  0  0  0  0  0  0  0
   -1.1747   -2.1910    0.0891 C   0  0  0  0  0  0  0  0  0  0  0  0
    0.1702   -2.2702    0.0209 N   0  0  0  0  0  0  0  0  0  0  0  0
    0.8736   -1.1338    0.0285 C   0  0  0  0  0  0  0  0  0  0  0  0
    2.2592   -1.2618    0.0286 C   0  0  0  0  0  0  0  0  0  0  0  0
    3.1303   -0.1668    0.0882 C   0  0  0  0  0  0  0  0  0  0  0  0
    2.5516    1.0966    0.1724 C   0  0  0  0  0  0  0  0  0  0  0  0
    1.1597    1.2484    0.1634 C   0  0  0  0  0  0  0  0  0  0  0  0
    0.2779    0.1453    0.0523 C   0  0  0  0  0  0  0  0  0  0  0  0
   -1.1532    0.2009    0.0022 C   0  0  0  0  0  0  0  0  0  0  0  0
   -1.9697    1.4414   -0.1626 C   0  0  0  0  0  0  0  0  0  0  0  0
   -1.6499    2.6885   -0.5564 C   0  0  0  0  0  0  0  0  0  0  0  0
    4.5892   -0.3541    0.0889 C   0  0  0  0  0  0  0  0  0  0  0  0
    5.5500    0.5892    0.0960 C   0  0  0  0  0  0  0  0  0  0  0  0
    6.8509   -0.0292    0.0905 C   0  0  0  0  0  0  0  0  0  0  0  0
    6.7103   -1.3604    0.0775 C   0  0  0  0  0  0  0  0  0  0  0  0
    5.2512   -1.7139    0.0729 C   0  0  0  0  0  0  0  0  0  0  0  0
   -2.7971    4.3781    0.1279 H   0  0  0  0  0  0  0  0  0  0  0  0
   -3.0260    3.9703   -1.5990 H   0  0  0  0  0  0  0  0  0  0  0  0
   -5.0051    2.8588   -0.2187 H   0  0  0  0  0  0  0  0  0  0  0  0
   -6.2446    0.7894    0.4549 H   0  0  0  0  0  0  0  0  0  0  0  0
   -6.9509   -1.6682    0.8392 H   0  0  0  0  0  0  0  0  0  0  0  0
   -4.1979   -3.1113    1.9035 H   0  0  0  0  0  0  0  0  0  0  0  0
   -4.5361   -3.4043   -0.5591 H   0  0  0  0  0  0  0  0  0  0  0  0
   -1.6475   -3.1671    0.1290 H   0  0  0  0  0  0  0  0  0  0  0  0
    2.6556   -2.2744   -0.0093 H   0  0  0  0  0  0  0  0  0  0  0  0
    3.1622    1.9911    0.2612 H   0  0  0  0  0  0  0  0  0  0  0  0
    0.7830    2.2549    0.2974 H   0  0  0  0  0  0  0  0  0  0  0  0
   -0.6868    3.0619   -0.8583 H   0  0  0  0  0  0  0  0  0  0  0  0
    5.4200    1.6602    0.1021 H   0  0  0  0  0  0  0  0  0  0  0  0
    7.7827    0.5157    0.0959 H   0  0  0  0  0  0  0  0  0  0  0  0
    7.5147   -2.0799    0.0705 H   0  0  0  0  0  0  0  0  0  0  0  0
    4.9967   -2.2983    0.9630 H   0  0  0  0  0  0  0  0  0  0  0  0
    4.9991   -2.2775   -0.8312 H   0  0  0  0  0  0  0  0  0  0  0  0
  1  2  1  0
  2  3  2  0
  3  4  1  0
  4  5  1  0
  5  6  2  0
  6  7  1  0
  7  8  1  0
  8  9  1  0
  9 10  2  0
 10 11  1  0
 11 12  2  0
 12 13  1  0
 13 14  2  0
 14 15  1  0
 15 16  2  0
 16 17  1  0
 17 18  2  0
 18 19  1  0
 19 20  2  0
 14 21  1  0
 21 22  2  0
 22 23  1  0
 23 24  2  0
 24 25  1  0
 20  1  1  0
 25 21  1  0
 19  3  1  0
  8  4  2  0
 18  9  1  0
 17 12  1  0
  1 26  1  0
  1 27  1  0
  2 28  1  0
  5 29  1  0
  6 30  1  0
  7 31  1  0
  7 32  1  0
 10 33  1  0
 13 34  1  0
 15 35  1  0
 16 36  1  0
 20 37  1  0
 22 38  1  0
 23 39  1  0
 24 40  1  0
 25 41  1  0
 25 42  1  0
M  END
