
     RDKit          3D

 46 53  0  0  0  0  0  0  0  0999 V2000
   -3.8252    3.0660    0.6825 C   0  0  0  0  0  0  0  0  0  0  0  0
   -4.7714    1.9429    0.3938 C   0  0  0  0  0  0  0  0  0  0  0  0
   -4.0758    0.8121    0.2026 C   0  0  0  0  0  0  0  0  0  0  0  0
   -4.5704   -0.5391    0.0771 C   0  0  0  0  0  0  0  0  0  0  0  0
   -5.9516   -0.9960   -0.0750 C   0  0  0  0  0  0  0  0  0  0  0  0
   -6.1133   -2.3303   -0.1378 C   0  0  0  0  0  0  0  0  0  0  0  0
   -4.4527   -3.2141    0.0002 Si  0  0  0  0  0  4  0  0  0  0  0  0
   -3.6528   -1.5382    0.1367 C   0  0  0  0  0  0  0  0  0  0  0  0
   -2.1986   -1.3211    0.2439 C   0  0  0  0  0  0  0  0  0  0  0  0
   -1.4407   -2.4332    0.3728 N   0  0  0  0  0  0  0  0  0  0  0  0
   -0.0991   -2.2726    0.4034 C   0  0  0  0  0  0  0  0  0  0  0  0
    0.5779   -1.0721    0.2182 C   0  0  0  0  0  0  0  0  0  0  0  0
    2.0268   -1.0766    0.2155 C   0  0  0  0  0  0  0  0  0  0  0  0
    2.8669    0.0356   -0.0551 C   0  0  0  0  0  0  0  0  0  0  0  0
    4.3199    0.0295   -0.0605 C   0  0  0  0  0  0  0  0  0  0  0  0
    4.9879    1.1440    0.3968 N   0  0  0  0  0  0  0  0  0  0  0  0
    6.3557    1.2039    0.4366 C   0  0  0  0  0  0  0  0  0  0  0  0
    7.2516    0.2175    0.0457 C   0  0  0  0  0  0  0  0  0  0  0  0
    6.6243   -0.9458   -0.4346 C   0  0  0  0  0  0  0  0  0  0  0  0
    7.2626   -2.0411   -0.8758 N   0  0  0  0  0  0  0  0  0  0  0  0
    6.0898   -3.1183   -1.3383 S   0  0  0  0  0  0  0  0  0  0  0  0
    4.7203   -2.2510   -0.9896 N   0  0  0  0  0  0  0  0  0  0  0  0
    5.1218   -1.0637   -0.4961 C   0  0  0  0  0  0  0  0  0  0  0  0
    2.0632    1.1336   -0.3667 C   0  0  0  0  0  0  0  0  0  0  0  0
    2.4798    2.3634   -0.8129 C   0  0  0  0  0  0  0  0  0  0  0  0
    1.4010    3.1269   -1.1427 O   0  0  0  0  0  0  0  0  0  0  0  0
    0.2858    2.3810   -0.8968 C   0  0  0  0  0  0  0  0  0  0  0  0
    0.6267    1.1696   -0.3465 C   0  0  0  0  0  0  0  0  0  0  0  0
   -0.2376    0.0916    0.0173 C   0  0  0  0  0  0  0  0  0  0  0  0
   -1.6576   -0.0141    0.1606 C   0  0  0  0  0  0  0  0  0  0  0  0
   -2.6377    1.0913    0.2827 C   0  0  0  0  0  0  0  0  0  0  0  0
   -2.4906    2.3792    0.6396 C   0  0  0  0  0  0  0  0  0  0  0  0
   -3.8923    3.8519   -0.0752 H   0  0  0  0  0  0  0  0  0  0  0  0
   -4.0137    3.4904    1.6731 H   0  0  0  0  0  0  0  0  0  0  0  0
   -5.8459    2.0337    0.4303 H   0  0  0  0  0  0  0  0  0  0  0  0
   -6.7723   -0.2926   -0.1327 H   0  0  0  0  0  0  0  0  0  0  0  0
   -7.0372   -2.8748   -0.2487 H   0  0  0  0  0  0  0  0  0  0  0  0
   -4.1609   -3.9414   -1.2622 H   0  0  0  0  0  0  0  0  0  0  0  0
   -4.4162   -4.0279    1.2428 H   0  0  0  0  0  0  0  0  0  0  0  0
    0.4444   -3.2040    0.5529 H   0  0  0  0  0  0  0  0  0  0  0  0
    2.5159   -2.0297    0.4357 H   0  0  0  0  0  0  0  0  0  0  0  0
    6.7376    2.1483    0.8254 H   0  0  0  0  0  0  0  0  0  0  0  0
    8.3245    0.3307    0.1028 H   0  0  0  0  0  0  0  0  0  0  0  0
    3.4420    2.8236   -0.9896 H   0  0  0  0  0  0  0  0  0  0  0  0
   -0.6377    2.8531   -1.1968 H   0  0  0  0  0  0  0  0  0  0  0  0
   -1.5749    2.8777    0.9141 H   0  0  0  0  0  0  0  0  0  0  0  0
  1  2  1  0
  2  3  2  0
  3  4  1  0
  4  5  1  0
  5  6  2  0
  6  7  1  0
  7  8  1  0
  8  9  1  0
  9 10  2  0
 10 11  1  0
 11 12  2  0
 12 13  1  0
 13 14  2  0
 14 15  1  0
 15 16  2  0
 16 17  1  0
 17 18  2  0
 18 19  1  0
 19 20  2  0
 20 21  1  0
 21 22  1  0
 22 23  2  0
 14 24  1  0
 24 25  2  0
 25 26  1  0
 26 27  1  0
 27 28  2  0
 28 29  1  0
 29 30  2  0
 30 31  1  0
 31 32  2  0
 32  1  1  0
 31  3  1  0
  8  4  2  0
 30  9  1  0
 29 12  1  0
 23 15  1  0
 28 24  1  0
 23 19  1  0
  1 33  1  0
  1 34  1  0
  2 35  1  0
  5 36  1  0
  6 37  1  0
  7 38  1  0
  7 39  1  0
 11 40  1  0
 13 41  1  0
 17 42  1  0
 18 43  1  0
 25 44  1  0
 27 45  1  0
 32 46  1  0
M  END
