
     RDKit          3D

 50 57  0  0  0  0  0  0  0  0999 V2000
    2.1318    3.5856    1.4166 C   0  0  0  0  0  0  0  0  0  0  0  0
    3.5190    3.0281    1.3564 C   0  0  0  0  0  0  0  0  0  0  0  0
    3.4642    1.7337    1.0117 C   0  0  0  0  0  0  0  0  0  0  0  0
    4.5439    0.8037    0.8342 C   0  0  0  0  0  0  0  0  0  0  0  0
    5.9740    0.9586    0.9645 C   0  0  0  0  0  0  0  0  0  0  0  0
    6.5768   -0.2082    0.6944 C   0  0  0  0  0  0  0  0  0  0  0  0
    5.5447   -1.2493    0.3553 C   0  0  0  0  0  0  0  0  0  0  0  0
    4.2672   -0.4701    0.4809 C   0  0  0  0  0  0  0  0  0  0  0  0
    2.8897   -0.9550    0.2665 C   0  0  0  0  0  0  0  0  0  0  0  0
    2.6389   -2.3186   -0.1092 C   0  0  0  0  0  0  0  0  0  0  0  0
    3.5353   -3.3022   -0.3123 N   0  0  0  0  0  0  0  0  0  0  0  0
    2.6873   -4.6645   -0.7261 S   0  0  0  0  0  0  0  0  0  0  0  0
    1.1324   -4.0935   -0.6728 N   0  0  0  0  0  0  0  0  0  0  0  0
    1.2174   -2.7995   -0.3259 C   0  0  0  0  0  0  0  0  0  0  0  0
    0.1648   -1.8880   -0.1520 C   0  0  0  0  0  0  0  0  0  0  0  0
   -1.2535   -2.1260   -0.3054 C   0  0  0  0  0  0  0  0  0  0  0  0
   -1.8554   -0.9562   -0.0374 C   0  0  0  0  0  0  0  0  0  0  0  0
   -0.8870    0.1533    0.3199 C   0  0  0  0  0  0  0  0  0  0  0  0
    0.4421   -0.5550    0.2173 C   0  0  0  0  0  0  0  0  0  0  0  0
    1.7493   -0.0729    0.4275 C   0  0  0  0  0  0  0  0  0  0  0  0
    2.0690    1.3261    0.8168 C   0  0  0  0  0  0  0  0  0  0  0  0
    1.2887    2.3963    1.0505 C   0  0  0  0  0  0  0  0  0  0  0  0
   -3.2999   -0.7237   -0.0660 C   0  0  0  0  0  0  0  0  0  0  0  0
   -4.0392   -1.1533    1.0466 C   0  0  0  0  0  0  0  0  0  0  0  0
   -5.4136   -0.9484    1.1041 C   0  0  0  0  0  0  0  0  0  0  0  0
   -6.0640   -0.3145    0.0484 C   0  0  0  0  0  0  0  0  0  0  0  0
   -5.3538    0.1160   -1.0829 C   0  0  0  0  0  0  0  0  0  0  0  0
   -6.0281    0.7463   -2.1422 C   0  0  0  0  0  0  0  0  0  0  0  0
   -5.3423    1.1716   -3.2791 C   0  0  0  0  0  0  0  0  0  0  0  0
   -3.9722    0.9683   -3.3744 C   0  0  0  0  0  0  0  0  0  0  0  0
   -3.2871    0.3444   -2.3295 C   0  0  0  0  0  0  0  0  0  0  0  0
   -3.9529   -0.0898   -1.1583 C   0  0  0  0  0  0  0  0  0  0  0  0
    2.0002    4.3977    0.6955 H   0  0  0  0  0  0  0  0  0  0  0  0
    1.8922    3.9426    2.4225 H   0  0  0  0  0  0  0  0  0  0  0  0
    4.4131    3.5959    1.5620 H   0  0  0  0  0  0  0  0  0  0  0  0
    6.4644    1.8798    1.2381 H   0  0  0  0  0  0  0  0  0  0  0  0
    7.6408   -0.3879    0.7135 H   0  0  0  0  0  0  0  0  0  0  0  0
    5.5939   -2.0749    1.0718 H   0  0  0  0  0  0  0  0  0  0  0  0
    5.7023   -1.6173   -0.6631 H   0  0  0  0  0  0  0  0  0  0  0  0
   -1.7029   -3.0660   -0.5836 H   0  0  0  0  0  0  0  0  0  0  0  0
   -0.9481    0.9745   -0.4000 H   0  0  0  0  0  0  0  0  0  0  0  0
   -1.0663    0.5032    1.3413 H   0  0  0  0  0  0  0  0  0  0  0  0
    0.2154    2.4566    0.9996 H   0  0  0  0  0  0  0  0  0  0  0  0
   -3.5421   -1.6467    1.8795 H   0  0  0  0  0  0  0  0  0  0  0  0
   -5.9782   -1.2808    1.9711 H   0  0  0  0  0  0  0  0  0  0  0  0
   -7.1395   -0.1628    0.1129 H   0  0  0  0  0  0  0  0  0  0  0  0
   -7.1027    0.9089   -2.0902 H   0  0  0  0  0  0  0  0  0  0  0  0
   -5.8802    1.6552   -4.0901 H   0  0  0  0  0  0  0  0  0  0  0  0
   -3.4327    1.2894   -4.2615 H   0  0  0  0  0  0  0  0  0  0  0  0
   -2.2166    0.1895   -2.4445 H   0  0  0  0  0  0  0  0  0  0  0  0
  1  2  1  0
  2  3  2  0
  3  4  1  0
  4  5  1  0
  5  6  2  0
  6  7  1  0
  7  8  1  0
  8  9  1  0
  9 10  1  0
 10 11  2  0
 11 12  1  0
 12 13  1  0
 13 14  2  0
 14 15  1  0
 15 16  1  0
 16 17  2  0
 17 18  1  0
 18 19  1  0
 19 20  1  0
 20 21  1  0
 21 22  2  0
 17 23  1  0
 23 24  2  0
 24 25  1  0
 25 26  2  0
 26 27  1  0
 27 28  2  0
 28 29  1  0
 29 30  2  0
 30 31  1  0
 31 32  2  0
 22  1  1  0
 32 23  1  0
 21  3  1  0
 32 27  1  0
  8  4  2  0
 20  9  2  0
 14 10  1  0
 19 15  2  0
  1 33  1  0
  1 34  1  0
  2 35  1  0
  5 36  1  0
  6 37  1  0
  7 38  1  0
  7 39  1  0
 16 40  1  0
 18 41  1  0
 18 42  1  0
 22 43  1  0
 24 44  1  0
 25 45  1  0
 26 46  1  0
 28 47  1  0
 29 48  1  0
 30 49  1  0
 31 50  1  0
M  END
