
     RDKit          3D

 46 52  0  0  0  0  0  0  0  0999 V2000
   -2.0731    3.3861   -0.4404 C   0  0  0  0  0  0  0  0  0  0  0  0
   -3.4324    2.7650   -0.3887 C   0  0  0  0  0  0  0  0  0  0  0  0
   -3.3083    1.4324   -0.3150 C   0  0  0  0  0  0  0  0  0  0  0  0
   -4.3396    0.4341   -0.2434 C   0  0  0  0  0  0  0  0  0  0  0  0
   -5.7807    0.5353   -0.2304 C   0  0  0  0  0  0  0  0  0  0  0  0
   -6.3161   -0.6922   -0.1514 C   0  0  0  0  0  0  0  0  0  0  0  0
   -5.2218   -1.7229   -0.1055 C   0  0  0  0  0  0  0  0  0  0  0  0
   -3.9908   -0.8685   -0.1717 C   0  0  0  0  0  0  0  0  0  0  0  0
   -2.5883   -1.3377   -0.1635 C   0  0  0  0  0  0  0  0  0  0  0  0
   -2.3002   -2.7023   -0.0870 C   0  0  0  0  0  0  0  0  0  0  0  0
   -0.9783   -3.1561   -0.0799 C   0  0  0  0  0  0  0  0  0  0  0  0
    0.0796   -2.2312   -0.1510 C   0  0  0  0  0  0  0  0  0  0  0  0
    1.4943   -2.3788   -0.1654 C   0  0  0  0  0  0  0  0  0  0  0  0
    2.0607   -1.1228   -0.2289 C   0  0  0  0  0  0  0  0  0  0  0  0
    1.0153   -0.2321   -0.2971 N   0  0  0  0  0  0  0  0  0  0  0  0
   -0.2059   -0.8637   -0.2290 C   0  0  0  0  0  0  0  0  0  0  0  0
   -1.5285   -0.3779   -0.2361 C   0  0  0  0  0  0  0  0  0  0  0  0
   -1.8875    1.0574   -0.3121 C   0  0  0  0  0  0  0  0  0  0  0  0
   -1.1640    2.1894   -0.3824 C   0  0  0  0  0  0  0  0  0  0  0  0
    3.4484   -0.7128   -0.2904 C   0  0  0  0  0  0  0  0  0  0  0  0
    4.4298   -1.3514   -1.0883 C   0  0  0  0  0  0  0  0  0  0  0  0
    5.8042   -0.9295   -1.1683 C   0  0  0  0  0  0  0  0  0  0  0  0
    6.3428    0.1667   -0.4562 C   0  0  0  0  0  0  0  0  0  0  0  0
    5.3673    0.7665    0.3295 C   0  0  0  0  0  0  0  0  0  0  0  0
    5.5594    1.8353    1.1655 C   0  0  0  0  0  0  0  0  0  0  0  0
    4.3504    2.0838    1.7793 N   0  0  0  0  0  0  0  0  0  0  0  0
    3.3953    1.1898    1.3378 C   0  0  0  0  0  0  0  0  0  0  0  0
    3.9983    0.3636    0.4182 C   0  0  0  0  0  0  0  0  0  0  0  0
   -1.9075    4.0464    0.4159 H   0  0  0  0  0  0  0  0  0  0  0  0
   -1.9284    3.9443   -1.3700 H   0  0  0  0  0  0  0  0  0  0  0  0
   -4.3581    3.3184   -0.4079 H   0  0  0  0  0  0  0  0  0  0  0  0
   -6.3245    1.4658   -0.2780 H   0  0  0  0  0  0  0  0  0  0  0  0
   -7.3711   -0.9182   -0.1245 H   0  0  0  0  0  0  0  0  0  0  0  0
   -5.2704   -2.2942    0.8268 H   0  0  0  0  0  0  0  0  0  0  0  0
   -5.2939   -2.3990   -0.9631 H   0  0  0  0  0  0  0  0  0  0  0  0
   -3.0957   -3.4403   -0.0314 H   0  0  0  0  0  0  0  0  0  0  0  0
   -0.7697   -4.2206   -0.0196 H   0  0  0  0  0  0  0  0  0  0  0  0
    2.0403   -3.3120   -0.1177 H   0  0  0  0  0  0  0  0  0  0  0  0
    1.1485    0.7598   -0.3961 H   0  0  0  0  0  0  0  0  0  0  0  0
   -0.0958    2.2989   -0.3995 H   0  0  0  0  0  0  0  0  0  0  0  0
    4.1324   -2.2083   -1.6936 H   0  0  0  0  0  0  0  0  0  0  0  0
    6.4695   -1.4949   -1.8218 H   0  0  0  0  0  0  0  0  0  0  0  0
    7.3775    0.4701   -0.5204 H   0  0  0  0  0  0  0  0  0  0  0  0
    6.4310    2.4316    1.3984 H   0  0  0  0  0  0  0  0  0  0  0  0
    4.1912    2.8040    2.4719 H   0  0  0  0  0  0  0  0  0  0  0  0
    2.3945    1.2224    1.7457 H   0  0  0  0  0  0  0  0  0  0  0  0
  1  2  1  0
  2  3  2  0
  3  4  1  0
  4  5  1  0
  5  6  2  0
  6  7  1  0
  7  8  1  0
  8  9  1  0
  9 10  2  0
 10 11  1  0
 11 12  2  0
 12 13  1  0
 13 14  2  0
 14 15  1  0
 15 16  1  0
 16 17  2  0
 17 18  1  0
 18 19  2  0
 14 20  1  0
 20 21  2  0
 21 22  1  0
 22 23  2  0
 23 24  1  0
 24 25  2  0
 25 26  1  0
 26 27  1  0
 27 28  2  0
 19  1  1  0
 28 20  1  0
 18  3  1  0
 28 24  1  0
  8  4  2  0
 17  9  1  0
 16 12  1  0
  1 29  1  0
  1 30  1  0
  2 31  1  0
  5 32  1  0
  6 33  1  0
  7 34  1  0
  7 35  1  0
 10 36  1  0
 11 37  1  0
 13 38  1  0
 15 39  1  0
 19 40  1  0
 21 41  1  0
 22 42  1  0
 23 43  1  0
 25 44  1  0
 26 45  1  0
 27 46  1  0
M  END
