
     RDKit          3D

 40 46  0  0  0  0  0  0  0  0999 V2000
   -0.6876   -0.5090    4.2270 C   0  0  0  0  0  0  0  0  0  0  0  0
    0.3532   -0.4272    3.1479 C   0  0  0  0  0  0  0  0  0  0  0  0
   -0.2526   -0.2889    1.9625 C   0  0  0  0  0  0  0  0  0  0  0  0
    0.2616   -0.1693    0.6567 C   0  0  0  0  0  0  0  0  0  0  0  0
    1.5313   -0.1448    0.0744 C   0  0  0  0  0  0  0  0  0  0  0  0
    2.8742   -0.2069    0.3170 N   0  0  0  0  0  0  0  0  0  0  0  0
    3.5436   -0.1013   -0.8929 C   0  0  0  0  0  0  0  0  0  0  0  0
    2.6115    0.0297   -1.9184 C   0  0  0  0  0  0  0  0  0  0  0  0
    1.3703   -0.0031   -1.2628 C   0  0  0  0  0  0  0  0  0  0  0  0
    0.0501    0.0685   -1.6043 O   0  0  0  0  0  0  0  0  0  0  0  0
   -0.5990   -0.0358   -0.4119 C   0  0  0  0  0  0  0  0  0  0  0  0
   -2.0441   -0.0060   -0.3107 C   0  0  0  0  0  0  0  0  0  0  0  0
   -2.9827    0.1248   -1.3323 C   0  0  0  0  0  0  0  0  0  0  0  0
   -2.7820    0.2579   -2.6839 C   0  0  0  0  0  0  0  0  0  0  0  0
   -4.0232    0.3533   -3.2781 N   0  0  0  0  0  0  0  0  0  0  0  0
   -5.0174    0.2832   -2.3246 C   0  0  0  0  0  0  0  0  0  0  0  0
   -4.3943    0.1415   -1.1120 C   0  0  0  0  0  0  0  0  0  0  0  0
   -5.0290    0.0327    0.1203 C   0  0  0  0  0  0  0  0  0  0  0  0
   -4.0901   -0.1016    1.1751 C   0  0  0  0  0  0  0  0  0  0  0  0
   -2.6610   -0.1224    0.9917 C   0  0  0  0  0  0  0  0  0  0  0  0
   -1.7172   -0.2669    2.1449 C   0  0  0  0  0  0  0  0  0  0  0  0
   -1.9755   -0.3944    3.4581 C   0  0  0  0  0  0  0  0  0  0  0  0
    4.9792   -0.1317   -0.9835 C   0  0  0  0  0  0  0  0  0  0  0  0
    5.7673   -0.0366   -2.1176 C   0  0  0  0  0  0  0  0  0  0  0  0
    7.1358   -0.0948   -1.9206 N   0  0  0  0  0  0  0  0  0  0  0  0
    7.3757   -0.2338   -0.6369 C   0  0  0  0  0  0  0  0  0  0  0  0
    6.0048   -0.3015    0.3882 S   0  0  0  0  0  0  0  0  0  0  0  0
   -0.6307   -1.4644    4.7568 H   0  0  0  0  0  0  0  0  0  0  0  0
   -0.5813    0.3146    4.9391 H   0  0  0  0  0  0  0  0  0  0  0  0
    1.4160   -0.4746    3.3220 H   0  0  0  0  0  0  0  0  0  0  0  0
    3.2823   -0.3126    1.2367 H   0  0  0  0  0  0  0  0  0  0  0  0
    2.7952    0.1333   -2.9775 H   0  0  0  0  0  0  0  0  0  0  0  0
   -1.8832    0.2945   -3.2846 H   0  0  0  0  0  0  0  0  0  0  0  0
   -4.1790    0.4596   -4.2720 H   0  0  0  0  0  0  0  0  0  0  0  0
   -6.0592    0.3412   -2.6081 H   0  0  0  0  0  0  0  0  0  0  0  0
   -6.0982    0.0463    0.2773 H   0  0  0  0  0  0  0  0  0  0  0  0
   -4.4927   -0.1937    2.1828 H   0  0  0  0  0  0  0  0  0  0  0  0
   -2.9477   -0.4152    3.9249 H   0  0  0  0  0  0  0  0  0  0  0  0
    5.3944    0.0779   -3.1282 H   0  0  0  0  0  0  0  0  0  0  0  0
    8.3812   -0.3023   -0.2426 H   0  0  0  0  0  0  0  0  0  0  0  0
  1  2  1  0
  2  3  2  0
  3  4  1  0
  4  5  1  0
  5  6  1  0
  6  7  1  0
  7  8  2  0
  8  9  1  0
  9 10  1  0
 10 11  1  0
 11 12  1  0
 12 13  1  0
 13 14  2  0
 14 15  1  0
 15 16  1  0
 16 17  2  0
 17 18  1  0
 18 19  2  0
 19 20  1  0
 20 21  1  0
 21 22  2  0
  7 23  1  0
 23 24  2  0
 24 25  1  0
 25 26  2  0
 26 27  1  0
 22  1  1  0
 27 23  1  0
 21  3  1  0
 11  4  2  0
 20 12  2  0
  9  5  2  0
 17 13  1  0
  1 28  1  0
  1 29  1  0
  2 30  1  0
  6 31  1  0
  8 32  1  0
 14 33  1  0
 15 34  1  0
 16 35  1  0
 18 36  1  0
 19 37  1  0
 22 38  1  0
 24 39  1  0
 26 40  1  0
M  END
