
     RDKit          3D

 37 42  0  0  0  0  0  0  0  0999 V2000
   -1.1039   -3.7146    0.2230 C   0  0  0  0  0  0  0  0  0  0  0  0
   -2.2298   -2.7204    0.2144 C   0  0  0  0  0  0  0  0  0  0  0  0
   -1.7240   -1.4814    0.2161 C   0  0  0  0  0  0  0  0  0  0  0  0
   -2.3391   -0.2095    0.2090 C   0  0  0  0  0  0  0  0  0  0  0  0
   -3.6737    0.2326    0.1988 C   0  0  0  0  0  0  0  0  0  0  0  0
   -4.9717   -0.1955    0.1911 N   0  0  0  0  0  0  0  0  0  0  0  0
   -5.7785    0.9182    0.1827 C   0  0  0  0  0  0  0  0  0  0  0  0
   -5.0055    2.0644    0.1845 C   0  0  0  0  0  0  0  0  0  0  0  0
   -3.6686    1.5974    0.1948 C   0  0  0  0  0  0  0  0  0  0  0  0
   -2.3684    2.0401    0.2019 N   0  0  0  0  0  0  0  0  0  0  0  0
   -1.5560    0.9350    0.2110 C   0  0  0  0  0  0  0  0  0  0  0  0
   -0.0939    0.9305    0.2208 C   0  0  0  0  0  0  0  0  0  0  0  0
    0.5128    2.1371    0.2228 N   0  0  0  0  0  0  0  0  0  0  0  0
    1.8687    2.1042    0.2312 C   0  0  0  0  0  0  0  0  0  0  0  0
    2.6460    0.9392    0.2375 C   0  0  0  0  0  0  0  0  0  0  0  0
    1.9686   -0.2899    0.2405 C   0  0  0  0  0  0  0  0  0  0  0  0
    0.5748   -0.3147    0.2297 C   0  0  0  0  0  0  0  0  0  0  0  0
   -0.2526   -1.5445    0.2263 C   0  0  0  0  0  0  0  0  0  0  0  0
    0.1180   -2.8361    0.2303 C   0  0  0  0  0  0  0  0  0  0  0  0
    4.1128    0.9787    0.2631 C   0  0  0  0  0  0  0  0  0  0  0  0
    4.9850    0.2024    1.0065 C   0  0  0  0  0  0  0  0  0  0  0  0
    6.3531    0.5138    0.7547 C   0  0  0  0  0  0  0  0  0  0  0  0
    6.4880    1.5138   -0.1802 C   0  0  0  0  0  0  0  0  0  0  0  0
    4.9751    2.0688   -0.7471 S   0  0  0  0  0  0  0  0  0  0  0  0
   -1.1407   -4.3427    1.1180 H   0  0  0  0  0  0  0  0  0  0  0  0
   -1.1287   -4.3445   -0.6711 H   0  0  0  0  0  0  0  0  0  0  0  0
   -3.2751   -2.9829    0.2070 H   0  0  0  0  0  0  0  0  0  0  0  0
   -5.2457   -1.1694    0.1917 H   0  0  0  0  0  0  0  0  0  0  0  0
   -6.8542    0.8010    0.1757 H   0  0  0  0  0  0  0  0  0  0  0  0
   -5.3589    3.0859    0.1791 H   0  0  0  0  0  0  0  0  0  0  0  0
   -2.0782    3.0091    0.2002 H   0  0  0  0  0  0  0  0  0  0  0  0
    2.3316    3.0883    0.2459 H   0  0  0  0  0  0  0  0  0  0  0  0
    2.5298   -1.2194    0.2386 H   0  0  0  0  0  0  0  0  0  0  0  0
    1.1272   -3.2170    0.2363 H   0  0  0  0  0  0  0  0  0  0  0  0
    4.6585   -0.5528    1.7118 H   0  0  0  0  0  0  0  0  0  0  0  0
    7.1939    0.0285    1.2353 H   0  0  0  0  0  0  0  0  0  0  0  0
    7.4031    1.9464   -0.5610 H   0  0  0  0  0  0  0  0  0  0  0  0
  1  2  1  0
  2  3  2  0
  3  4  1  0
  4  5  1  0
  5  6  1  0
  6  7  1  0
  7  8  2  0
  8  9  1  0
  9 10  1  0
 10 11  1  0
 11 12  1  0
 12 13  2  0
 13 14  1  0
 14 15  2  0
 15 16  1  0
 16 17  2  0
 17 18  1  0
 18 19  2  0
 15 20  1  0
 20 21  2  0
 21 22  1  0
 22 23  2  0
 23 24  1  0
 19  1  1  0
 24 20  1  0
 18  3  1  0
 11  4  2  0
 17 12  1  0
  9  5  2  0
  1 25  1  0
  1 26  1  0
  2 27  1  0
  6 28  1  0
  7 29  1  0
  8 30  1  0
 10 31  1  0
 14 32  1  0
 16 33  1  0
 19 34  1  0
 21 35  1  0
 22 36  1  0
 23 37  1  0
M  END
