
     RDKit          3D

 42 48  0  0  0  0  0  0  0  0999 V2000
    2.8043   -1.6173    3.3230 Si  0  0  0  0  0  4  0  0  0  0  0  0
    3.7384   -1.0593    1.8105 C   0  0  0  0  0  0  0  0  0  0  0  0
    2.9072   -0.6262    0.8383 C   0  0  0  0  0  0  0  0  0  0  0  0
    3.3250   -0.1092   -0.4687 C   0  0  0  0  0  0  0  0  0  0  0  0
    2.3674    0.3589   -1.3005 C   0  0  0  0  0  0  0  0  0  0  0  0
    0.9209    0.3345   -0.9801 C   0  0  0  0  0  0  0  0  0  0  0  0
    0.0195    0.8314   -1.9359 C   0  0  0  0  0  0  0  0  0  0  0  0
   -1.3484    0.7990   -1.6360 C   0  0  0  0  0  0  0  0  0  0  0  0
   -2.4265    1.2244   -2.3938 N   0  0  0  0  0  0  0  0  0  0  0  0
   -3.6160    1.0031   -1.7357 C   0  0  0  0  0  0  0  0  0  0  0  0
   -4.9644    1.2565   -2.1113 C   0  0  0  0  0  0  0  0  0  0  0  0
   -6.0328    0.9201   -1.2497 C   0  0  0  0  0  0  0  0  0  0  0  0
   -5.5931    0.3460   -0.0638 C   0  0  0  0  0  0  0  0  0  0  0  0
   -6.3858   -0.0987    0.9655 C   0  0  0  0  0  0  0  0  0  0  0  0
   -5.6056   -0.6161    1.9732 O   0  0  0  0  0  0  0  0  0  0  0  0
   -4.2923   -0.4996    1.5831 C   0  0  0  0  0  0  0  0  0  0  0  0
   -4.2815    0.0785    0.3540 C   0  0  0  0  0  0  0  0  0  0  0  0
   -3.2303    0.4284   -0.5353 C   0  0  0  0  0  0  0  0  0  0  0  0
   -1.8409    0.2902   -0.4306 C   0  0  0  0  0  0  0  0  0  0  0  0
   -0.9264   -0.2038    0.5198 C   0  0  0  0  0  0  0  0  0  0  0  0
    0.4539   -0.1805    0.2486 C   0  0  0  0  0  0  0  0  0  0  0  0
    1.4687   -0.6738    1.2078 C   0  0  0  0  0  0  0  0  0  0  0  0
    1.2230   -1.1587    2.4421 C   0  0  0  0  0  0  0  0  0  0  0  0
    4.6734   -0.0277   -0.9565 C   0  0  0  0  0  0  0  0  0  0  0  0
    5.3116    1.0725   -1.3122 N   0  0  0  0  0  0  0  0  0  0  0  0
    6.5925    0.7814   -1.7313 C   0  0  0  0  0  0  0  0  0  0  0  0
    6.9040   -0.5591   -1.7944 C   0  0  0  0  0  0  0  0  0  0  0  0
    5.5795   -1.4817   -1.2361 S   0  0  0  0  0  0  0  0  0  0  0  0
    2.9194   -3.0752    3.5559 H   0  0  0  0  0  0  0  0  0  0  0  0
    3.0645   -0.7592    4.5019 H   0  0  0  0  0  0  0  0  0  0  0  0
    4.8159   -1.0965    1.7911 H   0  0  0  0  0  0  0  0  0  0  0  0
    2.6407    0.7732   -2.2671 H   0  0  0  0  0  0  0  0  0  0  0  0
    0.3683    1.2284   -2.8836 H   0  0  0  0  0  0  0  0  0  0  0  0
   -2.3488    1.6309   -3.3122 H   0  0  0  0  0  0  0  0  0  0  0  0
   -5.1837    1.7051   -3.0776 H   0  0  0  0  0  0  0  0  0  0  0  0
   -7.0688    1.0940   -1.5086 H   0  0  0  0  0  0  0  0  0  0  0  0
   -7.4508   -0.1312    1.1461 H   0  0  0  0  0  0  0  0  0  0  0  0
   -3.5598   -0.8734    2.2824 H   0  0  0  0  0  0  0  0  0  0  0  0
   -1.2997   -0.5966    1.4567 H   0  0  0  0  0  0  0  0  0  0  0  0
    0.2737   -1.2798    2.9358 H   0  0  0  0  0  0  0  0  0  0  0  0
    7.2574    1.5909   -2.0083 H   0  0  0  0  0  0  0  0  0  0  0  0
    7.8265   -1.0238   -2.1114 H   0  0  0  0  0  0  0  0  0  0  0  0
  1  2  1  0
  2  3  2  0
  3  4  1  0
  4  5  2  0
  5  6  1  0
  6  7  2  0
  7  8  1  0
  8  9  1  0
  9 10  1  0
 10 11  1  0
 11 12  2  0
 12 13  1  0
 13 14  2  0
 14 15  1  0
 15 16  1  0
 16 17  2  0
 17 18  1  0
 18 19  1  0
 19 20  1  0
 20 21  2  0
 21 22  1  0
 22 23  2  0
  4 24  1  0
 24 25  2  0
 25 26  1  0
 26 27  2  0
 27 28  1  0
 23  1  1  0
 28 24  1  0
 22  3  1  0
 21  6  1  0
 19  8  2  0
 18 10  2  0
 17 13  1  0
  1 29  1  0
  1 30  1  0
  2 31  1  0
  5 32  1  0
  7 33  1  0
  9 34  1  0
 11 35  1  0
 12 36  1  0
 14 37  1  0
 16 38  1  0
 20 39  1  0
 23 40  1  0
 26 41  1  0
 27 42  1  0
M  END
