
     RDKit          3D

 46 52  0  0  0  0  0  0  0  0999 V2000
   -1.5941   -4.0675    0.3859 C   0  0  0  0  0  0  0  0  0  0  0  0
   -0.4486   -3.1234    0.1814 C   0  0  0  0  0  0  0  0  0  0  0  0
   -0.9042   -1.8627    0.1848 C   0  0  0  0  0  0  0  0  0  0  0  0
   -0.2199   -0.6257    0.0715 C   0  0  0  0  0  0  0  0  0  0  0  0
    1.1642   -0.3889    0.0127 C   0  0  0  0  0  0  0  0  0  0  0  0
    2.4360   -1.1569   -0.0241 C   0  0  0  0  0  0  0  0  0  0  0  0
    3.4678   -0.0023   -0.0174 C   0  0  0  0  0  0  0  0  0  0  0  0
    2.8431    1.2031    0.0252 C   0  0  0  0  0  0  0  0  0  0  0  0
    1.4576    0.9453    0.0464 C   0  0  0  0  0  0  0  0  0  0  0  0
    0.1121    1.9221    0.1615 S   0  0  0  0  0  0  0  0  0  0  0  0
   -0.9640    0.5660    0.0598 C   0  0  0  0  0  0  0  0  0  0  0  0
   -2.4725    0.6402    0.1133 C   0  0  0  0  0  0  0  0  0  0  0  0
   -3.2760    1.8256   -0.0722 C   0  0  0  0  0  0  0  0  0  0  0  0
   -2.8334    3.0905   -0.5498 C   0  0  0  0  0  0  0  0  0  0  0  0
   -3.6732    4.2050   -0.6650 C   0  0  0  0  0  0  0  0  0  0  0  0
   -5.0090    4.0995   -0.3257 C   0  0  0  0  0  0  0  0  0  0  0  0
   -5.5045    2.8720    0.0964 C   0  0  0  0  0  0  0  0  0  0  0  0
   -4.6709    1.7449    0.2051 C   0  0  0  0  0  0  0  0  0  0  0  0
   -5.2569    0.5324    0.5741 C   0  0  0  0  0  0  0  0  0  0  0  0
   -4.5084   -0.6346    0.6369 C   0  0  0  0  0  0  0  0  0  0  0  0
   -3.1342   -0.6036    0.3929 C   0  0  0  0  0  0  0  0  0  0  0  0
   -2.3479   -1.8591    0.3864 C   0  0  0  0  0  0  0  0  0  0  0  0
   -2.7634   -3.1337    0.5048 C   0  0  0  0  0  0  0  0  0  0  0  0
    4.9170   -0.2538   -0.0504 C   0  0  0  0  0  0  0  0  0  0  0  0
    5.8573    0.7835   -0.0490 C   0  0  0  0  0  0  0  0  0  0  0  0
    7.2239    0.5023   -0.0814 C   0  0  0  0  0  0  0  0  0  0  0  0
    7.6232   -0.8209   -0.1149 C   0  0  0  0  0  0  0  0  0  0  0  0
    6.7614   -1.8563   -0.1180 N   0  0  0  0  0  0  0  0  0  0  0  0
    5.4402   -1.5478   -0.0859 C   0  0  0  0  0  0  0  0  0  0  0  0
   -1.7106   -4.7381   -0.4704 H   0  0  0  0  0  0  0  0  0  0  0  0
   -1.4643   -4.6543    1.3000 H   0  0  0  0  0  0  0  0  0  0  0  0
    0.5760   -3.4371    0.0655 H   0  0  0  0  0  0  0  0  0  0  0  0
    2.5451   -1.7892    0.8626 H   0  0  0  0  0  0  0  0  0  0  0  0
    2.5132   -1.7522   -0.9393 H   0  0  0  0  0  0  0  0  0  0  0  0
    3.2811    2.1888    0.0451 H   0  0  0  0  0  0  0  0  0  0  0  0
   -1.8175    3.2366   -0.8945 H   0  0  0  0  0  0  0  0  0  0  0  0
   -3.2740    5.1472   -1.0315 H   0  0  0  0  0  0  0  0  0  0  0  0
   -5.6684    4.9583   -0.4108 H   0  0  0  0  0  0  0  0  0  0  0  0
   -6.5653    2.7981    0.3298 H   0  0  0  0  0  0  0  0  0  0  0  0
   -6.3240    0.4732    0.7808 H   0  0  0  0  0  0  0  0  0  0  0  0
   -5.0178   -1.5619    0.8809 H   0  0  0  0  0  0  0  0  0  0  0  0
   -3.7768   -3.4753    0.6445 H   0  0  0  0  0  0  0  0  0  0  0  0
    5.5492    1.8246   -0.0230 H   0  0  0  0  0  0  0  0  0  0  0  0
    7.9574    1.3009   -0.0804 H   0  0  0  0  0  0  0  0  0  0  0  0
    8.6751   -1.0902   -0.1408 H   0  0  0  0  0  0  0  0  0  0  0  0
    4.7987   -2.4244   -0.0901 H   0  0  0  0  0  0  0  0  0  0  0  0
  1  2  1  0
  2  3  2  0
  3  4  1  0
  4  5  1  0
  5  6  1  0
  6  7  1  0
  7  8  2  0
  8  9  1  0
  9 10  1  0
 10 11  1  0
 11 12  1  0
 12 13  2  0
 13 14  1  0
 14 15  2  0
 15 16  1  0
 16 17  2  0
 17 18  1  0
 18 19  2  0
 19 20  1  0
 20 21  2  0
 21 22  1  0
 22 23  2  0
  7 24  1  0
 24 25  2  0
 25 26  1  0
 26 27  2  0
 27 28  1  0
 28 29  2  0
 23  1  1  0
 29 24  1  0
 22  3  1  0
 11  4  2  0
 21 12  1  0
  9  5  2  0
 18 13  1  0
  1 30  1  0
  1 31  1  0
  2 32  1  0
  6 33  1  0
  6 34  1  0
  8 35  1  0
 14 36  1  0
 15 37  1  0
 16 38  1  0
 17 39  1  0
 19 40  1  0
 20 41  1  0
 23 42  1  0
 25 43  1  0
 26 44  1  0
 27 45  1  0
 29 46  1  0
M  END
