
     RDKit          3D

 41 47  0  0  0  0  0  0  0  0999 V2000
   -2.0441   -3.2114   -2.1879 C   0  0  0  0  0  0  0  0  0  0  0  0
   -2.9919   -2.3087   -1.4550 C   0  0  0  0  0  0  0  0  0  0  0  0
   -2.2952   -1.3506   -0.8312 C   0  0  0  0  0  0  0  0  0  0  0  0
   -2.7183   -0.2708   -0.0189 C   0  0  0  0  0  0  0  0  0  0  0  0
   -3.9589    0.1779    0.4151 C   0  0  0  0  0  0  0  0  0  0  0  0
   -5.4149   -0.0683    0.3704 C   0  0  0  0  0  0  0  0  0  0  0  0
   -5.9018    1.1080    1.2577 C   0  0  0  0  0  0  0  0  0  0  0  0
   -4.8800    1.8747    1.7149 C   0  0  0  0  0  0  0  0  0  0  0  0
   -3.7298    1.2825    1.1862 C   0  0  0  0  0  0  0  0  0  0  0  0
   -2.4091    1.5594    1.2651 N   0  0  0  0  0  0  0  0  0  0  0  0
   -1.7524    0.5946    0.5140 C   0  0  0  0  0  0  0  0  0  0  0  0
   -0.3053    0.4612    0.2873 C   0  0  0  0  0  0  0  0  0  0  0  0
    0.6469    1.3153    0.8132 C   0  0  0  0  0  0  0  0  0  0  0  0
    1.9775    1.1873    0.6007 N   0  0  0  0  0  0  0  0  0  0  0  0
    2.4128    0.1636   -0.1725 C   0  0  0  0  0  0  0  0  0  0  0  0
    1.5273   -0.7488   -0.7461 C   0  0  0  0  0  0  0  0  0  0  0  0
    0.1549   -0.6068   -0.5200 C   0  0  0  0  0  0  0  0  0  0  0  0
   -0.8603   -1.5284   -1.0887 C   0  0  0  0  0  0  0  0  0  0  0  0
   -0.7022   -2.6068   -1.8760 C   0  0  0  0  0  0  0  0  0  0  0  0
    3.8639    0.0933   -0.3545 C   0  0  0  0  0  0  0  0  0  0  0  0
    4.6737   -1.1255   -1.3042 S   0  0  0  0  0  0  0  0  0  0  0  0
    6.2599   -0.4935   -0.9938 C   0  0  0  0  0  0  0  0  0  0  0  0
    6.1156    0.5885   -0.2029 C   0  0  0  0  0  0  0  0  0  0  0  0
    6.9029    1.5633    0.4265 C   0  0  0  0  0  0  0  0  0  0  0  0
    5.9881    2.3819    1.0979 C   0  0  0  0  0  0  0  0  0  0  0  0
    4.6686    2.0025    0.9451 O   0  0  0  0  0  0  0  0  0  0  0  0
    4.8232    0.9085    0.1445 C   0  0  0  0  0  0  0  0  0  0  0  0
   -2.1086   -4.2375   -1.8140 H   0  0  0  0  0  0  0  0  0  0  0  0
   -2.2399   -3.1979   -3.2642 H   0  0  0  0  0  0  0  0  0  0  0  0
   -4.0638   -2.4250   -1.4413 H   0  0  0  0  0  0  0  0  0  0  0  0
   -5.8206    0.0185   -0.6410 H   0  0  0  0  0  0  0  0  0  0  0  0
   -5.6885   -1.0274    0.8180 H   0  0  0  0  0  0  0  0  0  0  0  0
   -6.9463    1.2779    1.4741 H   0  0  0  0  0  0  0  0  0  0  0  0
   -4.9414    2.7476    2.3462 H   0  0  0  0  0  0  0  0  0  0  0  0
   -1.9818    2.3216    1.7728 H   0  0  0  0  0  0  0  0  0  0  0  0
    0.3803    2.1582    1.4415 H   0  0  0  0  0  0  0  0  0  0  0  0
    1.8892   -1.5624   -1.3621 H   0  0  0  0  0  0  0  0  0  0  0  0
    0.2288   -3.0059   -2.2465 H   0  0  0  0  0  0  0  0  0  0  0  0
    7.1463   -0.9544   -1.4056 H   0  0  0  0  0  0  0  0  0  0  0  0
    7.9762    1.6842    0.4159 H   0  0  0  0  0  0  0  0  0  0  0  0
    6.1190    3.2596    1.7171 H   0  0  0  0  0  0  0  0  0  0  0  0
  1  2  1  0
  2  3  2  0
  3  4  1  0
  4  5  1  0
  5  6  1  0
  6  7  1  0
  7  8  2  0
  8  9  1  0
  9 10  1  0
 10 11  1  0
 11 12  1  0
 12 13  2  0
 13 14  1  0
 14 15  2  0
 15 16  1  0
 16 17  2  0
 17 18  1  0
 18 19  2  0
 15 20  1  0
 20 21  1  0
 21 22  1  0
 22 23  2  0
 23 24  1  0
 24 25  2  0
 25 26  1  0
 26 27  1  0
 19  1  1  0
 27 20  2  0
 18  3  1  0
 27 23  1  0
 11  4  2  0
 17 12  1  0
  9  5  2  0
  1 28  1  0
  1 29  1  0
  2 30  1  0
  6 31  1  0
  6 32  1  0
  7 33  1  0
  8 34  1  0
 10 35  1  0
 13 36  1  0
 16 37  1  0
 19 38  1  0
 22 39  1  0
 24 40  1  0
 25 41  1  0
M  END
