
     RDKit          3D

 38 43  0  0  0  0  0  0  0  0999 V2000
   -0.9264   -3.7438    0.3998 C   0  0  0  0  0  0  0  0  0  0  0  0
   -1.9559   -2.6590    0.2702 C   0  0  0  0  0  0  0  0  0  0  0  0
   -1.3466   -1.4743    0.1311 C   0  0  0  0  0  0  0  0  0  0  0  0
   -1.8604   -0.1542   -0.0261 C   0  0  0  0  0  0  0  0  0  0  0  0
   -3.1671    0.3987   -0.0940 C   0  0  0  0  0  0  0  0  0  0  0  0
   -4.4798   -0.1137   -0.0355 C   0  0  0  0  0  0  0  0  0  0  0  0
   -5.5709    0.7577   -0.1408 C   0  0  0  0  0  0  0  0  0  0  0  0
   -5.3744    2.1261   -0.3028 C   0  0  0  0  0  0  0  0  0  0  0  0
   -4.0868    2.6648   -0.3644 C   0  0  0  0  0  0  0  0  0  0  0  0
   -3.0044    1.7824   -0.2578 C   0  0  0  0  0  0  0  0  0  0  0  0
   -1.6503    2.0434   -0.2864 N   0  0  0  0  0  0  0  0  0  0  0  0
   -0.9482    0.8814   -0.1471 C   0  0  0  0  0  0  0  0  0  0  0  0
    0.5028    0.7465   -0.1283 C   0  0  0  0  0  0  0  0  0  0  0  0
    1.2153    1.8869   -0.2580 N   0  0  0  0  0  0  0  0  0  0  0  0
    2.5619    1.7334   -0.2372 C   0  0  0  0  0  0  0  0  0  0  0  0
    3.2323    0.5122   -0.0939 C   0  0  0  0  0  0  0  0  0  0  0  0
    2.4460   -0.6424    0.0417 C   0  0  0  0  0  0  0  0  0  0  0  0
    1.0553   -0.5412    0.0242 C   0  0  0  0  0  0  0  0  0  0  0  0
    0.1144   -1.6744    0.1572 C   0  0  0  0  0  0  0  0  0  0  0  0
    0.3680   -2.9848    0.3121 C   0  0  0  0  0  0  0  0  0  0  0  0
    4.6958    0.4676   -0.0713 C   0  0  0  0  0  0  0  0  0  0  0  0
    5.5992    1.3395    0.5140 C   0  0  0  0  0  0  0  0  0  0  0  0
    6.9374    1.0423    0.3399 N   0  0  0  0  0  0  0  0  0  0  0  0
    7.0441   -0.0525   -0.3780 C   0  0  0  0  0  0  0  0  0  0  0  0
    5.5740   -0.7750   -0.8778 S   0  0  0  0  0  0  0  0  0  0  0  0
   -1.0131   -4.4680   -0.4155 H   0  0  0  0  0  0  0  0  0  0  0  0
   -1.0157   -4.2581    1.3612 H   0  0  0  0  0  0  0  0  0  0  0  0
   -3.0188   -2.8347    0.2891 H   0  0  0  0  0  0  0  0  0  0  0  0
   -4.6549   -1.1766    0.0902 H   0  0  0  0  0  0  0  0  0  0  0  0
   -6.5813    0.3589   -0.0953 H   0  0  0  0  0  0  0  0  0  0  0  0
   -6.2345    2.7868   -0.3827 H   0  0  0  0  0  0  0  0  0  0  0  0
   -3.9367    3.7321   -0.4908 H   0  0  0  0  0  0  0  0  0  0  0  0
   -1.2237    2.9535   -0.3939 H   0  0  0  0  0  0  0  0  0  0  0  0
    3.1119    2.6647   -0.3548 H   0  0  0  0  0  0  0  0  0  0  0  0
    2.9144   -1.6132    0.1725 H   0  0  0  0  0  0  0  0  0  0  0  0
    1.3385   -3.4526    0.3682 H   0  0  0  0  0  0  0  0  0  0  0  0
    5.3353    2.2176    1.0923 H   0  0  0  0  0  0  0  0  0  0  0  0
    8.0034   -0.4781   -0.6429 H   0  0  0  0  0  0  0  0  0  0  0  0
  1  2  1  0
  2  3  2  0
  3  4  1  0
  4  5  1  0
  5  6  2  0
  6  7  1  0
  7  8  2  0
  8  9  1  0
  9 10  2  0
 10 11  1  0
 11 12  1  0
 12 13  1  0
 13 14  2  0
 14 15  1  0
 15 16  2  0
 16 17  1  0
 17 18  2  0
 18 19  1  0
 19 20  2  0
 16 21  1  0
 21 22  2  0
 22 23  1  0
 23 24  2  0
 24 25  1  0
 20  1  1  0
 25 21  1  0
 19  3  1  0
 12  4  2  0
 18 13  1  0
 10  5  1  0
  1 26  1  0
  1 27  1  0
  2 28  1  0
  6 29  1  0
  7 30  1  0
  8 31  1  0
  9 32  1  0
 11 33  1  0
 15 34  1  0
 17 35  1  0
 20 36  1  0
 22 37  1  0
 24 38  1  0
M  END
