
     RDKit          3D

 47 54  0  0  0  0  0  0  0  0999 V2000
   -2.9752    3.0946    2.6925 C   0  0  0  0  0  0  0  0  0  0  0  0
   -1.7174    2.4457    2.1976 C   0  0  0  0  0  0  0  0  0  0  0  0
   -2.0231    1.4712    1.3294 C   0  0  0  0  0  0  0  0  0  0  0  0
   -1.1947    0.5749    0.5938 C   0  0  0  0  0  0  0  0  0  0  0  0
    0.2129    0.4023    0.5236 C   0  0  0  0  0  0  0  0  0  0  0  0
    1.3298    1.0019    1.1110 C   0  0  0  0  0  0  0  0  0  0  0  0
    2.5847    0.5785    0.8130 N   0  0  0  0  0  0  0  0  0  0  0  0
    2.7759   -0.4385   -0.0642 C   0  0  0  0  0  0  0  0  0  0  0  0
    1.7175   -1.0913   -0.6947 C   0  0  0  0  0  0  0  0  0  0  0  0
    0.4336   -0.6413   -0.3752 C   0  0  0  0  0  0  0  0  0  0  0  0
   -0.7953   -1.0758   -0.8248 N   0  0  0  0  0  0  0  0  0  0  0  0
   -1.8025   -0.3503   -0.2488 C   0  0  0  0  0  0  0  0  0  0  0  0
   -3.2458   -0.4719   -0.4373 C   0  0  0  0  0  0  0  0  0  0  0  0
   -3.9486   -1.3618   -1.2547 C   0  0  0  0  0  0  0  0  0  0  0  0
   -3.5016   -2.3510   -2.0937 C   0  0  0  0  0  0  0  0  0  0  0  0
   -4.5618   -2.9736   -2.6978 O   0  0  0  0  0  0  0  0  0  0  0  0
   -5.7040   -2.3793   -2.2433 C   0  0  0  0  0  0  0  0  0  0  0  0
   -5.3763   -1.3883   -1.3589 C   0  0  0  0  0  0  0  0  0  0  0  0
   -6.2673   -0.5629   -0.6883 C   0  0  0  0  0  0  0  0  0  0  0  0
   -5.5768    0.3477    0.1463 C   0  0  0  0  0  0  0  0  0  0  0  0
   -4.1403    0.4067    0.2793 C   0  0  0  0  0  0  0  0  0  0  0  0
   -3.4857    1.3951    1.1797 C   0  0  0  0  0  0  0  0  0  0  0  0
   -4.0444    2.3321    1.9660 C   0  0  0  0  0  0  0  0  0  0  0  0
    4.1942   -0.7859   -0.2864 C   0  0  0  0  0  0  0  0  0  0  0  0
    4.6646   -2.0659   -1.3759 S   0  0  0  0  0  0  0  0  0  0  0  0
    6.3505   -1.8529   -1.0943 C   0  0  0  0  0  0  0  0  0  0  0  0
    6.5556   -0.8417   -0.2008 C   0  0  0  0  0  0  0  0  0  0  0  0
    7.7214   -0.1755    0.4463 C   0  0  0  0  0  0  0  0  0  0  0  0
    7.0060    0.8624    1.3107 C   0  0  0  0  0  0  0  0  0  0  0  0
    5.6641    0.7814    1.1638 C   0  0  0  0  0  0  0  0  0  0  0  0
    5.3447   -0.2538    0.2429 C   0  0  0  0  0  0  0  0  0  0  0  0
   -3.0010    4.1560    2.4293 H   0  0  0  0  0  0  0  0  0  0  0  0
   -3.0775    2.9805    3.7757 H   0  0  0  0  0  0  0  0  0  0  0  0
   -0.7324    2.7446    2.5144 H   0  0  0  0  0  0  0  0  0  0  0  0
    1.2661    1.8176    1.8196 H   0  0  0  0  0  0  0  0  0  0  0  0
    1.8623   -1.9028   -1.3951 H   0  0  0  0  0  0  0  0  0  0  0  0
   -0.9104   -1.8262   -1.4864 H   0  0  0  0  0  0  0  0  0  0  0  0
   -2.5422   -2.7465   -2.3849 H   0  0  0  0  0  0  0  0  0  0  0  0
   -6.6275   -2.7751   -2.6416 H   0  0  0  0  0  0  0  0  0  0  0  0
   -7.3446   -0.5908   -0.7738 H   0  0  0  0  0  0  0  0  0  0  0  0
   -6.1867    1.0445    0.7203 H   0  0  0  0  0  0  0  0  0  0  0  0
   -5.0966    2.5361    2.0843 H   0  0  0  0  0  0  0  0  0  0  0  0
    7.0773   -2.4758   -1.5962 H   0  0  0  0  0  0  0  0  0  0  0  0
    8.2945   -0.8704    1.0663 H   0  0  0  0  0  0  0  0  0  0  0  0
    8.3714    0.3097   -0.2870 H   0  0  0  0  0  0  0  0  0  0  0  0
    7.5187    1.5637    1.9515 H   0  0  0  0  0  0  0  0  0  0  0  0
    4.9338    1.4023    1.6638 H   0  0  0  0  0  0  0  0  0  0  0  0
  1  2  1  0
  2  3  2  0
  3  4  1  0
  4  5  1  0
  5  6  2  0
  6  7  1  0
  7  8  2  0
  8  9  1  0
  9 10  2  0
 10 11  1  0
 11 12  1  0
 12 13  1  0
 13 14  1  0
 14 15  2  0
 15 16  1  0
 16 17  1  0
 17 18  2  0
 18 19  1  0
 19 20  2  0
 20 21  1  0
 21 22  1  0
 22 23  2  0
  8 24  1  0
 24 25  1  0
 25 26  1  0
 26 27  2  0
 27 28  1  0
 28 29  1  0
 29 30  2  0
 30 31  1  0
 23  1  1  0
 31 24  2  0
 22  3  1  0
 31 27  1  0
 12  4  2  0
 21 13  2  0
 10  5  1  0
 18 14  1  0
  1 32  1  0
  1 33  1  0
  2 34  1  0
  6 35  1  0
  9 36  1  0
 11 37  1  0
 15 38  1  0
 17 39  1  0
 19 40  1  0
 20 41  1  0
 23 42  1  0
 26 43  1  0
 28 44  1  0
 28 45  1  0
 29 46  1  0
 30 47  1  0
M  END
