
     RDKit          3D

 42 48  0  0  0  0  0  0  0  0999 V2000
   -2.3595    1.1486   -3.5131 C   0  0  0  0  0  0  0  0  0  0  0  0
   -1.2584    0.8582   -2.5347 C   0  0  0  0  0  0  0  0  0  0  0  0
   -1.7971    0.5379   -1.3532 C   0  0  0  0  0  0  0  0  0  0  0  0
   -1.2203    0.1862   -0.1229 C   0  0  0  0  0  0  0  0  0  0  0  0
    0.0567    0.0221    0.3879 C   0  0  0  0  0  0  0  0  0  0  0  0
    1.3559    0.1082    0.0050 O   0  0  0  0  0  0  0  0  0  0  0  0
    2.0790   -0.2335    1.1282 C   0  0  0  0  0  0  0  0  0  0  0  0
    1.2659   -0.5085    2.2177 C   0  0  0  0  0  0  0  0  0  0  0  0
   -0.0130   -0.3375    1.6825 C   0  0  0  0  0  0  0  0  0  0  0  0
   -1.3172   -0.4255    2.0864 O   0  0  0  0  0  0  0  0  0  0  0  0
   -2.0253   -0.1013    0.9602 C   0  0  0  0  0  0  0  0  0  0  0  0
   -3.4878   -0.0789    0.9671 C   0  0  0  0  0  0  0  0  0  0  0  0
   -4.2459   -0.3812    2.0995 C   0  0  0  0  0  0  0  0  0  0  0  0
   -5.6389   -0.3388    2.0289 C   0  0  0  0  0  0  0  0  0  0  0  0
   -6.2749    0.0039    0.8330 C   0  0  0  0  0  0  0  0  0  0  0  0
   -5.5273    0.3089   -0.3087 C   0  0  0  0  0  0  0  0  0  0  0  0
   -4.1308    0.2727   -0.2609 C   0  0  0  0  0  0  0  0  0  0  0  0
   -3.2664    0.5850   -1.4358 C   0  0  0  0  0  0  0  0  0  0  0  0
   -3.6024    0.9391   -2.6883 C   0  0  0  0  0  0  0  0  0  0  0  0
    3.5219   -0.1925    0.9838 C   0  0  0  0  0  0  0  0  0  0  0  0
    4.3832    0.2761    2.0095 C   0  0  0  0  0  0  0  0  0  0  0  0
    5.8105    0.3297    1.9009 C   0  0  0  0  0  0  0  0  0  0  0  0
    6.5279   -0.0859    0.7608 C   0  0  0  0  0  0  0  0  0  0  0  0
    5.6830   -0.5594   -0.2430 C   0  0  0  0  0  0  0  0  0  0  0  0
    6.1661   -1.0317   -1.4383 C   0  0  0  0  0  0  0  0  0  0  0  0
    4.8912   -1.5666   -2.4561 S   0  0  0  0  0  0  0  0  0  0  0  0
    3.6924   -1.1654   -1.2897 C   0  0  0  0  0  0  0  0  0  0  0  0
    4.2396   -0.6170   -0.1515 C   0  0  0  0  0  0  0  0  0  0  0  0
   -2.3004    2.1781   -3.8782 H   0  0  0  0  0  0  0  0  0  0  0  0
   -2.3284    0.4546   -4.3582 H   0  0  0  0  0  0  0  0  0  0  0  0
   -0.2037    0.9050   -2.7601 H   0  0  0  0  0  0  0  0  0  0  0  0
    1.5595   -0.7885    3.2167 H   0  0  0  0  0  0  0  0  0  0  0  0
   -3.7598   -0.6490    3.0341 H   0  0  0  0  0  0  0  0  0  0  0  0
   -6.2318   -0.5739    2.9096 H   0  0  0  0  0  0  0  0  0  0  0  0
   -7.3613    0.0336    0.7897 H   0  0  0  0  0  0  0  0  0  0  0  0
   -6.0489    0.5717   -1.2241 H   0  0  0  0  0  0  0  0  0  0  0  0
   -4.6013    1.0636   -3.0761 H   0  0  0  0  0  0  0  0  0  0  0  0
    3.9425    0.6349    2.9407 H   0  0  0  0  0  0  0  0  0  0  0  0
    6.3727    0.7172    2.7514 H   0  0  0  0  0  0  0  0  0  0  0  0
    7.6072   -0.0387    0.6989 H   0  0  0  0  0  0  0  0  0  0  0  0
    7.1906   -1.1019   -1.7766 H   0  0  0  0  0  0  0  0  0  0  0  0
    2.6550   -1.3597   -1.5228 H   0  0  0  0  0  0  0  0  0  0  0  0
  1  2  1  0
  2  3  2  0
  3  4  1  0
  4  5  1  0
  5  6  1  0
  6  7  1  0
  7  8  2  0
  8  9  1  0
  9 10  1  0
 10 11  1  0
 11 12  1  0
 12 13  2  0
 13 14  1  0
 14 15  2  0
 15 16  1  0
 16 17  2  0
 17 18  1  0
 18 19  2  0
  7 20  1  0
 20 21  2  0
 21 22  1  0
 22 23  2  0
 23 24  1  0
 24 25  2  0
 25 26  1  0
 26 27  1  0
 27 28  2  0
 19  1  1  0
 28 20  1  0
 18  3  1  0
 28 24  1  0
 11  4  2  0
 17 12  1  0
  9  5  2  0
  1 29  1  0
  1 30  1  0
  2 31  1  0
  8 32  1  0
 13 33  1  0
 14 34  1  0
 15 35  1  0
 16 36  1  0
 19 37  1  0
 21 38  1  0
 22 39  1  0
 23 40  1  0
 25 41  1  0
 27 42  1  0
M  END
