
     RDKit          3D

 40 47  0  0  0  0  0  0  0  0999 V2000
   -2.3632   -3.2722   -0.3952 C   0  0  0  0  0  0  0  0  0  0  0  0
   -3.2948   -2.1534   -0.0422 C   0  0  0  0  0  0  0  0  0  0  0  0
   -2.5996   -1.0144    0.0759 C   0  0  0  0  0  0  0  0  0  0  0  0
   -3.0169    0.2989    0.3956 C   0  0  0  0  0  0  0  0  0  0  0  0
   -4.3065    0.7711    0.6780 C   0  0  0  0  0  0  0  0  0  0  0  0
   -5.5413    0.1932    0.7448 O   0  0  0  0  0  0  0  0  0  0  0  0
   -6.3868    1.2078    1.0697 C   0  0  0  0  0  0  0  0  0  0  0  0
   -5.7436    2.4120    1.2133 C   0  0  0  0  0  0  0  0  0  0  0  0
   -4.3874    2.0957    0.9516 C   0  0  0  0  0  0  0  0  0  0  0  0
   -2.8263    2.8416    0.8696 S   0  0  0  0  0  0  0  0  0  0  0  0
   -2.0888    1.3332    0.4642 C   0  0  0  0  0  0  0  0  0  0  0  0
   -0.6399    1.1307    0.2110 C   0  0  0  0  0  0  0  0  0  0  0  0
    0.3506    2.1545    0.2690 C   0  0  0  0  0  0  0  0  0  0  0  0
    0.1792    3.4573    0.5551 N   0  0  0  0  0  0  0  0  0  0  0  0
    1.6546    4.1918    0.4959 S   0  0  0  0  0  0  0  0  0  0  0  0
    2.6122    2.9093    0.0863 N   0  0  0  0  0  0  0  0  0  0  0  0
    1.8124    1.8322   -0.0146 C   0  0  0  0  0  0  0  0  0  0  0  0
    2.2352    0.5103   -0.3433 C   0  0  0  0  0  0  0  0  0  0  0  0
    1.2036   -0.4575   -0.3833 C   0  0  0  0  0  0  0  0  0  0  0  0
   -0.1647   -0.1840   -0.1215 C   0  0  0  0  0  0  0  0  0  0  0  0
   -1.1809   -1.2687   -0.1835 C   0  0  0  0  0  0  0  0  0  0  0  0
   -1.0311   -2.5773   -0.4572 C   0  0  0  0  0  0  0  0  0  0  0  0
    3.6353    0.2011   -0.6157 C   0  0  0  0  0  0  0  0  0  0  0  0
    4.4624    0.9225   -1.4928 C   0  0  0  0  0  0  0  0  0  0  0  0
    5.7799    0.6871   -1.8116 N   0  0  0  0  0  0  0  0  0  0  0  0
    6.4585   -0.3479   -1.2412 C   0  0  0  0  0  0  0  0  0  0  0  0
    5.7683   -1.1667   -0.3282 C   0  0  0  0  0  0  0  0  0  0  0  0
    6.2672   -2.2267    0.3279 N   0  0  0  0  0  0  0  0  0  0  0  0
    5.0384   -2.8129    1.2749 S   0  0  0  0  0  0  0  0  0  0  0  0
    3.8169   -1.7635    0.8801 N   0  0  0  0  0  0  0  0  0  0  0  0
    4.3205   -0.8862   -0.0092 C   0  0  0  0  0  0  0  0  0  0  0  0
   -2.3666   -4.0475    0.3765 H   0  0  0  0  0  0  0  0  0  0  0  0
   -2.6225   -3.7122   -1.3625 H   0  0  0  0  0  0  0  0  0  0  0  0
   -4.3601   -2.2645    0.0953 H   0  0  0  0  0  0  0  0  0  0  0  0
   -7.4242    0.9151    1.1643 H   0  0  0  0  0  0  0  0  0  0  0  0
   -6.1774    3.3676    1.4660 H   0  0  0  0  0  0  0  0  0  0  0  0
    1.4886   -1.4803   -0.6336 H   0  0  0  0  0  0  0  0  0  0  0  0
   -0.1125   -3.0939   -0.6878 H   0  0  0  0  0  0  0  0  0  0  0  0
    4.0566    1.7860   -2.0236 H   0  0  0  0  0  0  0  0  0  0  0  0
    7.4945   -0.4893   -1.5183 H   0  0  0  0  0  0  0  0  0  0  0  0
  1  2  1  0
  2  3  2  0
  3  4  1  0
  4  5  1  0
  5  6  1  0
  6  7  1  0
  7  8  2  0
  8  9  1  0
  9 10  1  0
 10 11  1  0
 11 12  1  0
 12 13  1  0
 13 14  2  0
 14 15  1  0
 15 16  1  0
 16 17  2  0
 17 18  1  0
 18 19  2  0
 19 20  1  0
 20 21  1  0
 21 22  2  0
 18 23  1  0
 23 24  2  0
 24 25  1  0
 25 26  2  0
 26 27  1  0
 27 28  2  0
 28 29  1  0
 29 30  1  0
 30 31  2  0
 22  1  1  0
 31 23  1  0
 21  3  1  0
 31 27  1  0
 11  4  2  0
 20 12  2  0
  9  5  2  0
 17 13  1  0
  1 32  1  0
  1 33  1  0
  2 34  1  0
  7 35  1  0
  8 36  1  0
 19 37  1  0
 22 38  1  0
 24 39  1  0
 26 40  1  0
M  END
