
     RDKit          3D

 47 54  0  0  0  0  0  0  0  0999 V2000
   -2.4758    3.5091    1.1804 C   0  0  0  0  0  0  0  0  0  0  0  0
   -1.1807    2.8603    0.7915 C   0  0  0  0  0  0  0  0  0  0  0  0
   -1.3894    1.5705    0.4722 C   0  0  0  0  0  0  0  0  0  0  0  0
   -0.4279    0.5327    0.0316 C   0  0  0  0  0  0  0  0  0  0  0  0
    0.9635    0.8661   -0.1035 C   0  0  0  0  0  0  0  0  0  0  0  0
    1.9710   -0.0370   -0.5085 C   0  0  0  0  0  0  0  0  0  0  0  0
    3.3617    0.3362   -0.6289 C   0  0  0  0  0  0  0  0  0  0  0  0
    3.9027    1.1315   -1.6742 C   0  0  0  0  0  0  0  0  0  0  0  0
    5.2920    1.5064   -1.7784 C   0  0  0  0  0  0  0  0  0  0  0  0
    6.2905    1.1345   -0.8482 C   0  0  0  0  0  0  0  0  0  0  0  0
    5.7369    0.3668    0.1665 C   0  0  0  0  0  0  0  0  0  0  0  0
    6.3876   -0.1674    1.2457 C   0  0  0  0  0  0  0  0  0  0  0  0
    5.4934   -0.8530    2.0232 O   0  0  0  0  0  0  0  0  0  0  0  0
    4.2641   -0.7509    1.4284 C   0  0  0  0  0  0  0  0  0  0  0  0
    4.3666   -0.0111    0.2779 C   0  0  0  0  0  0  0  0  0  0  0  0
    1.4502   -1.3120   -0.7805 C   0  0  0  0  0  0  0  0  0  0  0  0
    2.2324   -2.3582   -1.2178 C   0  0  0  0  0  0  0  0  0  0  0  0
    1.3168   -3.7814   -1.4601 S   0  0  0  0  0  0  0  0  0  0  0  0
   -0.1382   -3.0003   -0.9938 C   0  0  0  0  0  0  0  0  0  0  0  0
    0.0443   -1.6775   -0.6533 C   0  0  0  0  0  0  0  0  0  0  0  0
   -0.9750   -0.7803   -0.2378 C   0  0  0  0  0  0  0  0  0  0  0  0
   -2.4276   -1.0737   -0.0799 C   0  0  0  0  0  0  0  0  0  0  0  0
   -2.8547   -2.3355   -0.3525 N   0  0  0  0  0  0  0  0  0  0  0  0
   -4.1635   -2.6753   -0.2301 C   0  0  0  0  0  0  0  0  0  0  0  0
   -5.0976   -1.7290    0.1798 C   0  0  0  0  0  0  0  0  0  0  0  0
   -6.4988   -1.7186    0.4123 C   0  0  0  0  0  0  0  0  0  0  0  0
   -6.8139   -0.4417    0.8108 C   0  0  0  0  0  0  0  0  0  0  0  0
   -5.7022    0.3356    0.8396 O   0  0  0  0  0  0  0  0  0  0  0  0
   -4.6459   -0.4433    0.4550 C   0  0  0  0  0  0  0  0  0  0  0  0
   -3.3116   -0.0642    0.3396 C   0  0  0  0  0  0  0  0  0  0  0  0
   -2.8110    1.2748    0.6230 C   0  0  0  0  0  0  0  0  0  0  0  0
   -3.4513    2.3831    1.0308 C   0  0  0  0  0  0  0  0  0  0  0  0
   -2.7204    4.3363    0.5078 H   0  0  0  0  0  0  0  0  0  0  0  0
   -2.4425    3.8690    2.2128 H   0  0  0  0  0  0  0  0  0  0  0  0
   -0.2415    3.3903    0.7847 H   0  0  0  0  0  0  0  0  0  0  0  0
    1.2834    1.8825    0.1267 H   0  0  0  0  0  0  0  0  0  0  0  0
    3.2298    1.4814   -2.4594 H   0  0  0  0  0  0  0  0  0  0  0  0
    5.5872    2.1174   -2.6329 H   0  0  0  0  0  0  0  0  0  0  0  0
    7.3283    1.4222   -0.9355 H   0  0  0  0  0  0  0  0  0  0  0  0
    7.4075   -0.1640    1.6029 H   0  0  0  0  0  0  0  0  0  0  0  0
    3.4559   -1.2512    1.9438 H   0  0  0  0  0  0  0  0  0  0  0  0
    3.2965   -2.3781   -1.4112 H   0  0  0  0  0  0  0  0  0  0  0  0
   -1.0407   -3.5912   -1.0097 H   0  0  0  0  0  0  0  0  0  0  0  0
   -4.4187   -3.7021   -0.4669 H   0  0  0  0  0  0  0  0  0  0  0  0
   -7.1918   -2.5406    0.3028 H   0  0  0  0  0  0  0  0  0  0  0  0
   -7.7343    0.0496    1.0952 H   0  0  0  0  0  0  0  0  0  0  0  0
   -4.5072    2.4815    1.2305 H   0  0  0  0  0  0  0  0  0  0  0  0
  1  2  1  0
  2  3  2  0
  3  4  1  0
  4  5  1  0
  5  6  2  0
  6  7  1  0
  7  8  2  0
  8  9  1  0
  9 10  2  0
 10 11  1  0
 11 12  2  0
 12 13  1  0
 13 14  1  0
 14 15  2  0
  6 16  1  0
 16 17  2  0
 17 18  1  0
 18 19  1  0
 19 20  2  0
 20 21  1  0
 21 22  1  0
 22 23  2  0
 23 24  1  0
 24 25  2  0
 25 26  1  0
 26 27  2  0
 27 28  1  0
 28 29  1  0
 29 30  2  0
 30 31  1  0
 31 32  2  0
 32  1  1  0
 31  3  1  0
 21  4  2  0
 30 22  1  0
 15  7  1  0
 20 16  1  0
 29 25  1  0
 15 11  1  0
  1 33  1  0
  1 34  1  0
  2 35  1  0
  5 36  1  0
  8 37  1  0
  9 38  1  0
 10 39  1  0
 12 40  1  0
 14 41  1  0
 17 42  1  0
 19 43  1  0
 24 44  1  0
 26 45  1  0
 27 46  1  0
 32 47  1  0
M  END
