
     RDKit          3D

 46 53  0  0  0  0  0  0  0  0999 V2000
    2.5761   -3.8291   -0.6102 Si  0  0  0  0  0  4  0  0  0  0  0  0
    3.2103   -2.0868   -0.7639 C   0  0  0  0  0  0  0  0  0  0  0  0
    2.2211   -1.1797   -0.6157 C   0  0  0  0  0  0  0  0  0  0  0  0
    2.3995    0.2734   -0.6789 C   0  0  0  0  0  0  0  0  0  0  0  0
    1.3103    1.0588   -0.5224 C   0  0  0  0  0  0  0  0  0  0  0  0
   -0.0504    0.5200   -0.2890 C   0  0  0  0  0  0  0  0  0  0  0  0
   -1.1152    1.4206   -0.1408 C   0  0  0  0  0  0  0  0  0  0  0  0
   -2.4295    0.9499    0.0866 C   0  0  0  0  0  0  0  0  0  0  0  0
   -3.6049    1.7370    0.2559 C   0  0  0  0  0  0  0  0  0  0  0  0
   -3.6253    3.1166    0.2201 C   0  0  0  0  0  0  0  0  0  0  0  0
   -5.2118    3.7631    0.4604 S   0  0  0  0  0  0  0  0  0  0  0  0
   -5.9082    2.1972    0.6183 C   0  0  0  0  0  0  0  0  0  0  0  0
   -4.9217    1.2653    0.4839 C   0  0  0  0  0  0  0  0  0  0  0  0
   -5.1047   -0.1448    0.5537 C   0  0  0  0  0  0  0  0  0  0  0  0
   -6.2699   -0.8816    0.7646 C   0  0  0  0  0  0  0  0  0  0  0  0
   -5.8617   -2.1987    0.7356 C   0  0  0  0  0  0  0  0  0  0  0  0
   -4.5007   -2.2339    0.5148 N   0  0  0  0  0  0  0  0  0  0  0  0
   -3.9916   -0.9530    0.3953 C   0  0  0  0  0  0  0  0  0  0  0  0
   -2.6688   -0.4548    0.1654 C   0  0  0  0  0  0  0  0  0  0  0  0
   -1.5897   -1.3486    0.0147 C   0  0  0  0  0  0  0  0  0  0  0  0
   -0.2867   -0.8746   -0.2112 C   0  0  0  0  0  0  0  0  0  0  0  0
    0.8810   -1.7712   -0.3783 C   0  0  0  0  0  0  0  0  0  0  0  0
    0.8651   -3.1208   -0.3415 C   0  0  0  0  0  0  0  0  0  0  0  0
    3.6442    0.9336   -0.8814 C   0  0  0  0  0  0  0  0  0  0  0  0
    4.1486    1.5895   -2.3977 S   0  0  0  0  0  0  0  0  0  0  0  0
    5.6605    2.1301   -1.7710 C   0  0  0  0  0  0  0  0  0  0  0  0
    5.7151    1.7909   -0.4639 C   0  0  0  0  0  0  0  0  0  0  0  0
    6.6922    1.9695    0.5445 C   0  0  0  0  0  0  0  0  0  0  0  0
    6.2911    1.4369    1.7754 C   0  0  0  0  0  0  0  0  0  0  0  0
    4.7044    0.6776    1.8190 S   0  0  0  0  0  0  0  0  0  0  0  0
    4.6129    1.1225    0.0694 C   0  0  0  0  0  0  0  0  0  0  0  0
    3.0875   -4.5267    0.5939 H   0  0  0  0  0  0  0  0  0  0  0  0
    2.6713   -4.5912   -1.8785 H   0  0  0  0  0  0  0  0  0  0  0  0
    4.2552   -1.8912   -0.9464 H   0  0  0  0  0  0  0  0  0  0  0  0
    1.4010    2.1416   -0.5562 H   0  0  0  0  0  0  0  0  0  0  0  0
   -0.9259    2.4883   -0.2012 H   0  0  0  0  0  0  0  0  0  0  0  0
   -2.8101    3.8088    0.0677 H   0  0  0  0  0  0  0  0  0  0  0  0
   -6.9669    2.0722    0.7944 H   0  0  0  0  0  0  0  0  0  0  0  0
   -7.2807   -0.5302    0.9194 H   0  0  0  0  0  0  0  0  0  0  0  0
   -6.4185   -3.1189    0.8526 H   0  0  0  0  0  0  0  0  0  0  0  0
   -3.9510   -3.0785    0.4495 H   0  0  0  0  0  0  0  0  0  0  0  0
   -1.7645   -2.4169    0.0735 H   0  0  0  0  0  0  0  0  0  0  0  0
    0.0273   -3.7789   -0.1868 H   0  0  0  0  0  0  0  0  0  0  0  0
    6.3806    2.6428   -2.3926 H   0  0  0  0  0  0  0  0  0  0  0  0
    7.6486    2.4587    0.4071 H   0  0  0  0  0  0  0  0  0  0  0  0
    6.8548    1.4452    2.6984 H   0  0  0  0  0  0  0  0  0  0  0  0
  1  2  1  0
  2  3  2  0
  3  4  1  0
  4  5  2  0
  5  6  1  0
  6  7  2  0
  7  8  1  0
  8  9  1  0
  9 10  2  0
 10 11  1  0
 11 12  1  0
 12 13  2  0
 13 14  1  0
 14 15  1  0
 15 16  2  0
 16 17  1  0
 17 18  1  0
 18 19  1  0
 19 20  1  0
 20 21  2  0
 21 22  1  0
 22 23  2  0
  4 24  1  0
 24 25  1  0
 25 26  1  0
 26 27  2  0
 27 28  1  0
 28 29  2  0
 29 30  1  0
 30 31  1  0
 23  1  1  0
 31 24  2  0
 22  3  1  0
 31 27  1  0
 21  6  1  0
 19  8  2  0
 13  9  1  0
 18 14  2  0
  1 32  1  0
  1 33  1  0
  2 34  1  0
  5 35  1  0
  7 36  1  0
 10 37  1  0
 12 38  1  0
 15 39  1  0
 16 40  1  0
 17 41  1  0
 20 42  1  0
 23 43  1  0
 26 44  1  0
 28 45  1  0
 29 46  1  0
M  END
