
     RDKit          3D

 47 54  0  0  0  0  0  0  0  0999 V2000
    2.3130   -3.9504   -0.5602 C   0  0  0  0  0  0  0  0  0  0  0  0
    1.0054   -3.2248   -0.4787 C   0  0  0  0  0  0  0  0  0  0  0  0
    1.2201   -1.9138   -0.2669 C   0  0  0  0  0  0  0  0  0  0  0  0
    0.2440   -0.8225   -0.0557 C   0  0  0  0  0  0  0  0  0  0  0  0
   -1.1697   -1.1180   -0.0682 C   0  0  0  0  0  0  0  0  0  0  0  0
   -2.1818   -0.1870    0.2463 C   0  0  0  0  0  0  0  0  0  0  0  0
   -3.6011   -0.4738    0.2277 C   0  0  0  0  0  0  0  0  0  0  0  0
   -4.2526   -1.8226    1.1221 S   0  0  0  0  0  0  0  0  0  0  0  0
   -5.8899   -1.5115    0.6310 C   0  0  0  0  0  0  0  0  0  0  0  0
   -5.8796   -0.4310   -0.1743 C   0  0  0  0  0  0  0  0  0  0  0  0
   -6.9532    0.1476   -0.7852 N   0  0  0  0  0  0  0  0  0  0  0  0
   -6.3408    1.1927   -1.4753 C   0  0  0  0  0  0  0  0  0  0  0  0
   -4.9452    1.2085   -1.2627 C   0  0  0  0  0  0  0  0  0  0  0  0
   -4.6415    0.1291   -0.3918 C   0  0  0  0  0  0  0  0  0  0  0  0
   -1.6341    1.0405    0.6243 C   0  0  0  0  0  0  0  0  0  0  0  0
   -2.3239    2.1248    1.1130 C   0  0  0  0  0  0  0  0  0  0  0  0
   -1.3982    3.0799    1.4473 N   0  0  0  0  0  0  0  0  0  0  0  0
   -0.1260    2.6129    1.1959 C   0  0  0  0  0  0  0  0  0  0  0  0
   -0.2274    1.3617    0.6278 C   0  0  0  0  0  0  0  0  0  0  0  0
    0.8042    0.4839    0.2224 C   0  0  0  0  0  0  0  0  0  0  0  0
    2.2652    0.7698    0.1084 C   0  0  0  0  0  0  0  0  0  0  0  0
    2.7936    2.0730    0.0476 C   0  0  0  0  0  0  0  0  0  0  0  0
    4.1720    2.3403   -0.0224 C   0  0  0  0  0  0  0  0  0  0  0  0
    5.0681    1.2657   -0.0694 C   0  0  0  0  0  0  0  0  0  0  0  0
    6.4805    1.1383   -0.1436 C   0  0  0  0  0  0  0  0  0  0  0  0
    6.7429   -0.2085   -0.2046 C   0  0  0  0  0  0  0  0  0  0  0  0
    5.5883   -0.9191   -0.1777 O   0  0  0  0  0  0  0  0  0  0  0  0
    4.5541   -0.0274   -0.0864 C   0  0  0  0  0  0  0  0  0  0  0  0
    3.1812   -0.3142   -0.0305 C   0  0  0  0  0  0  0  0  0  0  0  0
    2.6594   -1.6743   -0.1982 C   0  0  0  0  0  0  0  0  0  0  0  0
    3.3010   -2.8442   -0.3627 C   0  0  0  0  0  0  0  0  0  0  0  0
    2.4407   -4.4256   -1.5371 H   0  0  0  0  0  0  0  0  0  0  0  0
    2.3979   -4.7019    0.2302 H   0  0  0  0  0  0  0  0  0  0  0  0
    0.0534   -3.7248   -0.5575 H   0  0  0  0  0  0  0  0  0  0  0  0
   -1.4892   -2.1254   -0.3299 H   0  0  0  0  0  0  0  0  0  0  0  0
   -6.7188   -2.1245    0.9544 H   0  0  0  0  0  0  0  0  0  0  0  0
   -7.9252   -0.1317   -0.7364 H   0  0  0  0  0  0  0  0  0  0  0  0
   -6.9526    1.8522   -2.0774 H   0  0  0  0  0  0  0  0  0  0  0  0
   -4.2514    1.9180   -1.6943 H   0  0  0  0  0  0  0  0  0  0  0  0
   -3.3775    2.2978    1.2877 H   0  0  0  0  0  0  0  0  0  0  0  0
   -1.6147    3.9745    1.8675 H   0  0  0  0  0  0  0  0  0  0  0  0
    0.7125    3.2252    1.4902 H   0  0  0  0  0  0  0  0  0  0  0  0
    2.1377    2.9360    0.0087 H   0  0  0  0  0  0  0  0  0  0  0  0
    4.5283    3.3657   -0.0559 H   0  0  0  0  0  0  0  0  0  0  0  0
    7.2133    1.9319   -0.1594 H   0  0  0  0  0  0  0  0  0  0  0  0
    7.6492   -0.7935   -0.2731 H   0  0  0  0  0  0  0  0  0  0  0  0
    4.3682   -2.9996   -0.3779 H   0  0  0  0  0  0  0  0  0  0  0  0
  1  2  1  0
  2  3  2  0
  3  4  1  0
  4  5  1  0
  5  6  2  0
  6  7  1  0
  7  8  1  0
  8  9  1  0
  9 10  2  0
 10 11  1  0
 11 12  1  0
 12 13  2  0
 13 14  1  0
  6 15  1  0
 15 16  2  0
 16 17  1  0
 17 18  1  0
 18 19  2  0
 19 20  1  0
 20 21  1  0
 21 22  2  0
 22 23  1  0
 23 24  2  0
 24 25  1  0
 25 26  2  0
 26 27  1  0
 27 28  1  0
 28 29  2  0
 29 30  1  0
 30 31  2  0
 31  1  1  0
 30  3  1  0
 20  4  2  0
 29 21  1  0
 14  7  2  0
 19 15  1  0
 28 24  1  0
 14 10  1  0
  1 32  1  0
  1 33  1  0
  2 34  1  0
  5 35  1  0
  9 36  1  0
 11 37  1  0
 12 38  1  0
 13 39  1  0
 16 40  1  0
 17 41  1  0
 18 42  1  0
 22 43  1  0
 23 44  1  0
 25 45  1  0
 26 46  1  0
 31 47  1  0
M  END
