
     RDKit          3D

 47 53  0  0  0  0  0  0  0  0999 V2000
    0.5692   -3.9830   -1.1883 C   0  0  0  0  0  0  0  0  0  0  0  0
   -0.6938   -3.2033   -1.0034 C   0  0  0  0  0  0  0  0  0  0  0  0
   -0.3938   -1.9746   -0.5526 C   0  0  0  0  0  0  0  0  0  0  0  0
   -1.2579   -0.8276   -0.3212 C   0  0  0  0  0  0  0  0  0  0  0  0
   -2.6575   -0.9051   -0.3372 C   0  0  0  0  0  0  0  0  0  0  0  0
   -3.4269    0.2288   -0.0841 C   0  0  0  0  0  0  0  0  0  0  0  0
   -2.7320    1.3981    0.1946 C   0  0  0  0  0  0  0  0  0  0  0  0
   -1.3813    1.5090    0.2121 N   0  0  0  0  0  0  0  0  0  0  0  0
   -0.6364    0.4063   -0.0605 C   0  0  0  0  0  0  0  0  0  0  0  0
    0.8807    0.5527    0.0243 C   0  0  0  0  0  0  0  0  0  0  0  0
    1.6613   -0.5799    0.0782 C   0  0  0  0  0  0  0  0  0  0  0  0
    3.1013   -0.4836    0.5437 C   0  0  0  0  0  0  0  0  0  0  0  0
    3.7632   -1.6064    1.0804 C   0  0  0  0  0  0  0  0  0  0  0  0
    5.0956   -1.5516    1.4990 C   0  0  0  0  0  0  0  0  0  0  0  0
    5.7927   -0.3557    1.4277 C   0  0  0  0  0  0  0  0  0  0  0  0
    5.1421    0.7911    0.9793 C   0  0  0  0  0  0  0  0  0  0  0  0
    3.7982    0.7447    0.5628 C   0  0  0  0  0  0  0  0  0  0  0  0
    3.0388    1.9598    0.2317 C   0  0  0  0  0  0  0  0  0  0  0  0
    3.5580    3.2012    0.1170 C   0  0  0  0  0  0  0  0  0  0  0  0
    2.2419    4.4569   -0.2707 Si  0  0  0  0  0  4  0  0  0  0  0  0
    1.0169    3.0630   -0.2672 C   0  0  0  0  0  0  0  0  0  0  0  0
    1.5742    1.8657    0.0233 C   0  0  0  0  0  0  0  0  0  0  0  0
    1.0428   -1.8415   -0.3663 C   0  0  0  0  0  0  0  0  0  0  0  0
    1.6141   -2.9885   -0.7797 C   0  0  0  0  0  0  0  0  0  0  0  0
   -4.8882    0.1718   -0.0995 C   0  0  0  0  0  0  0  0  0  0  0  0
   -5.7522   -0.8492    0.2651 C   0  0  0  0  0  0  0  0  0  0  0  0
   -7.0796   -0.4069    0.0516 C   0  0  0  0  0  0  0  0  0  0  0  0
   -7.0050    0.8705   -0.4495 C   0  0  0  0  0  0  0  0  0  0  0  0
   -5.6812    1.2111   -0.5417 N   0  0  0  0  0  0  0  0  0  0  0  0
    0.5903   -4.8681   -0.5461 H   0  0  0  0  0  0  0  0  0  0  0  0
    0.6978   -4.2806   -2.2331 H   0  0  0  0  0  0  0  0  0  0  0  0
   -1.6723   -3.5803   -1.2565 H   0  0  0  0  0  0  0  0  0  0  0  0
   -3.1480   -1.8507   -0.5480 H   0  0  0  0  0  0  0  0  0  0  0  0
   -3.2503    2.3207    0.4405 H   0  0  0  0  0  0  0  0  0  0  0  0
    3.2415   -2.5494    1.2161 H   0  0  0  0  0  0  0  0  0  0  0  0
    5.5775   -2.4420    1.8942 H   0  0  0  0  0  0  0  0  0  0  0  0
    6.8270   -0.3032    1.7563 H   0  0  0  0  0  0  0  0  0  0  0  0
    5.6922    1.7272    0.9908 H   0  0  0  0  0  0  0  0  0  0  0  0
    4.5833    3.5112    0.2263 H   0  0  0  0  0  0  0  0  0  0  0  0
    2.4219    5.0654   -1.6115 H   0  0  0  0  0  0  0  0  0  0  0  0
    2.0360    5.4207    0.8378 H   0  0  0  0  0  0  0  0  0  0  0  0
   -0.0097    3.2712   -0.5153 H   0  0  0  0  0  0  0  0  0  0  0  0
    2.6701   -3.1936   -0.8612 H   0  0  0  0  0  0  0  0  0  0  0  0
   -5.4580   -1.8142    0.6583 H   0  0  0  0  0  0  0  0  0  0  0  0
   -7.9890   -0.9624    0.2413 H   0  0  0  0  0  0  0  0  0  0  0  0
   -7.7776    1.5647   -0.7523 H   0  0  0  0  0  0  0  0  0  0  0  0
   -5.3379    2.0897   -0.9063 H   0  0  0  0  0  0  0  0  0  0  0  0
  1  2  1  0
  2  3  2  0
  3  4  1  0
  4  5  2  0
  5  6  1  0
  6  7  2  0
  7  8  1  0
  8  9  2  0
  9 10  1  0
 10 11  2  0
 11 12  1  0
 12 13  2  0
 13 14  1  0
 14 15  2  0
 15 16  1  0
 16 17  2  0
 17 18  1  0
 18 19  2  0
 19 20  1  0
 20 21  1  0
 21 22  2  0
 11 23  1  0
 23 24  2  0
  6 25  1  0
 25 26  2  0
 26 27  1  0
 27 28  2  0
 28 29  1  0
 24  1  1  0
 29 25  1  0
 23  3  1  0
  9  4  1  0
 22 10  1  0
 17 12  1  0
 22 18  1  0
  1 30  1  0
  1 31  1  0
  2 32  1  0
  5 33  1  0
  7 34  1  0
 13 35  1  0
 14 36  1  0
 15 37  1  0
 16 38  1  0
 19 39  1  0
 20 40  1  0
 20 41  1  0
 21 42  1  0
 24 43  1  0
 26 44  1  0
 27 45  1  0
 28 46  1  0
 29 47  1  0
M  END
