
     RDKit          3D

 46 53  0  0  0  0  0  0  0  0999 V2000
   -1.4220    3.3852   -1.6393 C   0  0  0  0  0  0  0  0  0  0  0  0
   -0.1907    2.7023   -1.1252 C   0  0  0  0  0  0  0  0  0  0  0  0
   -0.5323    1.5672   -0.4916 C   0  0  0  0  0  0  0  0  0  0  0  0
    0.3227    0.5725    0.1694 C   0  0  0  0  0  0  0  0  0  0  0  0
    1.7178    0.6942    0.2342 C   0  0  0  0  0  0  0  0  0  0  0  0
    2.4874   -0.2786    0.8758 C   0  0  0  0  0  0  0  0  0  0  0  0
    1.7938   -1.3519    1.4232 C   0  0  0  0  0  0  0  0  0  0  0  0
    0.4469   -1.5054    1.3853 N   0  0  0  0  0  0  0  0  0  0  0  0
   -0.2912   -0.5513    0.7640 C   0  0  0  0  0  0  0  0  0  0  0  0
   -1.7657   -0.7269    0.7292 C   0  0  0  0  0  0  0  0  0  0  0  0
   -2.5070   -1.7952    1.2828 C   0  0  0  0  0  0  0  0  0  0  0  0
   -2.0456   -2.9003    1.9689 C   0  0  0  0  0  0  0  0  0  0  0  0
   -3.1246   -3.6909    2.3295 N   0  0  0  0  0  0  0  0  0  0  0  0
   -4.2997   -3.1226    1.8903 C   0  0  0  0  0  0  0  0  0  0  0  0
   -3.9058   -1.9811    1.2621 C   0  0  0  0  0  0  0  0  0  0  0  0
   -4.6960   -1.0049    0.6210 C   0  0  0  0  0  0  0  0  0  0  0  0
   -6.0687   -0.9000    0.4336 C   0  0  0  0  0  0  0  0  0  0  0  0
   -6.2060    0.2812   -0.2665 C   0  0  0  0  0  0  0  0  0  0  0  0
   -4.9935    0.8701   -0.4975 O   0  0  0  0  0  0  0  0  0  0  0  0
   -4.0284    0.0631    0.0609 C   0  0  0  0  0  0  0  0  0  0  0  0
   -2.6239    0.2419    0.0862 C   0  0  0  0  0  0  0  0  0  0  0  0
   -1.9839    1.4099   -0.5353 C   0  0  0  0  0  0  0  0  0  0  0  0
   -2.5100    2.4553   -1.1960 C   0  0  0  0  0  0  0  0  0  0  0  0
    3.9500   -0.1651    0.9489 C   0  0  0  0  0  0  0  0  0  0  0  0
    4.7682   -0.5269    2.4310 S   0  0  0  0  0  0  0  0  0  0  0  0
    6.3122   -0.1702    1.7804 C   0  0  0  0  0  0  0  0  0  0  0  0
    6.2215    0.2229    0.4717 C   0  0  0  0  0  0  0  0  0  0  0  0
    7.3090    0.5628   -0.2741 N   0  0  0  0  0  0  0  0  0  0  0  0
    6.9363    0.9089   -1.5366 C   0  0  0  0  0  0  0  0  0  0  0  0
    5.6200    0.9208   -2.0135 C   0  0  0  0  0  0  0  0  0  0  0  0
    4.5184    0.5892   -1.2859 N   0  0  0  0  0  0  0  0  0  0  0  0
    4.8605    0.2331   -0.0120 C   0  0  0  0  0  0  0  0  0  0  0  0
   -1.3982    3.4741   -2.7293 H   0  0  0  0  0  0  0  0  0  0  0  0
   -1.5412    4.3754   -1.1901 H   0  0  0  0  0  0  0  0  0  0  0  0
    0.8054    3.0923   -1.2637 H   0  0  0  0  0  0  0  0  0  0  0  0
    2.2097    1.5517   -0.2167 H   0  0  0  0  0  0  0  0  0  0  0  0
    2.3113   -2.1661    1.9242 H   0  0  0  0  0  0  0  0  0  0  0  0
   -1.0491   -3.2165    2.2449 H   0  0  0  0  0  0  0  0  0  0  0  0
   -3.0522   -4.5600    2.8421 H   0  0  0  0  0  0  0  0  0  0  0  0
   -5.2592   -3.5858    2.0716 H   0  0  0  0  0  0  0  0  0  0  0  0
   -6.8596   -1.5641    0.7474 H   0  0  0  0  0  0  0  0  0  0  0  0
   -7.0576    0.8199   -0.6583 H   0  0  0  0  0  0  0  0  0  0  0  0
   -3.5551    2.6315   -1.3974 H   0  0  0  0  0  0  0  0  0  0  0  0
    7.2041   -0.2630    2.3829 H   0  0  0  0  0  0  0  0  0  0  0  0
    7.7556    1.1904   -2.1924 H   0  0  0  0  0  0  0  0  0  0  0  0
    5.4163    1.2108   -3.0407 H   0  0  0  0  0  0  0  0  0  0  0  0
  1  2  1  0
  2  3  2  0
  3  4  1  0
  4  5  2  0
  5  6  1  0
  6  7  2  0
  7  8  1  0
  8  9  2  0
  9 10  1  0
 10 11  1  0
 11 12  2  0
 12 13  1  0
 13 14  1  0
 14 15  2  0
 15 16  1  0
 16 17  1  0
 17 18  2  0
 18 19  1  0
 19 20  1  0
 20 21  1  0
 21 22  1  0
 22 23  2  0
  6 24  1  0
 24 25  1  0
 25 26  1  0
 26 27  2  0
 27 28  1  0
 28 29  2  0
 29 30  1  0
 30 31  2  0
 31 32  1  0
 23  1  1  0
 32 24  2  0
 22  3  1  0
 32 27  1  0
  9  4  1  0
 21 10  2  0
 15 11  1  0
 20 16  2  0
  1 33  1  0
  1 34  1  0
  2 35  1  0
  5 36  1  0
  7 37  1  0
 12 38  1  0
 13 39  1  0
 14 40  1  0
 17 41  1  0
 18 42  1  0
 23 43  1  0
 26 44  1  0
 29 45  1  0
 30 46  1  0
M  END
