
     RDKit          3D

 46 52  0  0  0  0  0  0  0  0999 V2000
   -0.7094    1.8927   -3.6210 C   0  0  0  0  0  0  0  0  0  0  0  0
    0.4962    1.5407   -2.8154 C   0  0  0  0  0  0  0  0  0  0  0  0
    0.1175    0.9290   -1.6816 C   0  0  0  0  0  0  0  0  0  0  0  0
    0.9661    0.3653   -0.6249 C   0  0  0  0  0  0  0  0  0  0  0  0
    2.3495    0.5801   -0.5785 C   0  0  0  0  0  0  0  0  0  0  0  0
    3.0723    0.1852    0.5423 C   0  0  0  0  0  0  0  0  0  0  0  0
    2.4558   -0.3940    1.6017 N   0  0  0  0  0  0  0  0  0  0  0  0
    1.1226   -0.6366    1.5042 C   0  0  0  0  0  0  0  0  0  0  0  0
    0.3202   -0.3425    0.4053 C   0  0  0  0  0  0  0  0  0  0  0  0
   -1.1358   -0.6113    0.3486 C   0  0  0  0  0  0  0  0  0  0  0  0
   -1.8282   -1.5936    1.0968 C   0  0  0  0  0  0  0  0  0  0  0  0
   -1.3165   -2.6572    1.8096 C   0  0  0  0  0  0  0  0  0  0  0  0
   -2.3772   -3.3717    2.3270 N   0  0  0  0  0  0  0  0  0  0  0  0
   -3.5680   -2.8001    1.9401 C   0  0  0  0  0  0  0  0  0  0  0  0
   -3.2546   -1.7197    1.1535 C   0  0  0  0  0  0  0  0  0  0  0  0
   -4.1340   -0.8719    0.4936 C   0  0  0  0  0  0  0  0  0  0  0  0
   -5.5911   -0.8817    0.5498 C   0  0  0  0  0  0  0  0  0  0  0  0
   -6.1417    0.1179   -0.1672 C   0  0  0  0  0  0  0  0  0  0  0  0
   -4.8596    1.1864   -1.0398 Si  0  0  0  0  0  4  0  0  0  0  0  0
   -3.4683    0.0815   -0.3496 C   0  0  0  0  0  0  0  0  0  0  0  0
   -2.0386    0.1402   -0.5155 C   0  0  0  0  0  0  0  0  0  0  0  0
   -1.3471    0.8609   -1.6189 C   0  0  0  0  0  0  0  0  0  0  0  0
   -1.8251    1.3643   -2.7708 C   0  0  0  0  0  0  0  0  0  0  0  0
    4.5299    0.4235    0.6580 C   0  0  0  0  0  0  0  0  0  0  0  0
    5.1908    0.3995    1.8890 C   0  0  0  0  0  0  0  0  0  0  0  0
    6.5571    0.6686    1.9353 C   0  0  0  0  0  0  0  0  0  0  0  0
    7.2404    0.9357    0.7541 C   0  0  0  0  0  0  0  0  0  0  0  0
    6.5248    0.9293   -0.4266 C   0  0  0  0  0  0  0  0  0  0  0  0
    5.1980    0.6877   -0.5012 N   0  0  0  0  0  0  0  0  0  0  0  0
   -0.6886    1.3997   -4.5944 H   0  0  0  0  0  0  0  0  0  0  0  0
   -0.7974    2.9723   -3.7568 H   0  0  0  0  0  0  0  0  0  0  0  0
    1.5063    1.7309   -3.1431 H   0  0  0  0  0  0  0  0  0  0  0  0
    2.8637    1.0886   -1.3864 H   0  0  0  0  0  0  0  0  0  0  0  0
    0.7042   -1.0561    2.4140 H   0  0  0  0  0  0  0  0  0  0  0  0
   -0.3098   -3.0168    1.9752 H   0  0  0  0  0  0  0  0  0  0  0  0
   -2.2905   -4.2191    2.8704 H   0  0  0  0  0  0  0  0  0  0  0  0
   -4.5114   -3.2369    2.2371 H   0  0  0  0  0  0  0  0  0  0  0  0
   -6.1462   -1.6255    1.1074 H   0  0  0  0  0  0  0  0  0  0  0  0
   -7.1959    0.3157   -0.2848 H   0  0  0  0  0  0  0  0  0  0  0  0
   -4.8328    2.5569   -0.4604 H   0  0  0  0  0  0  0  0  0  0  0  0
   -5.0362    1.1217   -2.5166 H   0  0  0  0  0  0  0  0  0  0  0  0
   -2.8405    1.3711   -3.1220 H   0  0  0  0  0  0  0  0  0  0  0  0
    4.6345    0.2160    2.8093 H   0  0  0  0  0  0  0  0  0  0  0  0
    7.0790    0.6919    2.8886 H   0  0  0  0  0  0  0  0  0  0  0  0
    8.3024    1.1521    0.7559 H   0  0  0  0  0  0  0  0  0  0  0  0
    7.0131    1.1292   -1.3771 H   0  0  0  0  0  0  0  0  0  0  0  0
  1  2  1  0
  2  3  2  0
  3  4  1  0
  4  5  2  0
  5  6  1  0
  6  7  2  0
  7  8  1  0
  8  9  2  0
  9 10  1  0
 10 11  1  0
 11 12  2  0
 12 13  1  0
 13 14  1  0
 14 15  2  0
 15 16  1  0
 16 17  1  0
 17 18  2  0
 18 19  1  0
 19 20  1  0
 20 21  1  0
 21 22  1  0
 22 23  2  0
  6 24  1  0
 24 25  2  0
 25 26  1  0
 26 27  2  0
 27 28  1  0
 28 29  2  0
 23  1  1  0
 29 24  1  0
 22  3  1  0
  9  4  1  0
 21 10  2  0
 15 11  1  0
 20 16  2  0
  1 30  1  0
  1 31  1  0
  2 32  1  0
  5 33  1  0
  8 34  1  0
 12 35  1  0
 13 36  1  0
 14 37  1  0
 17 38  1  0
 18 39  1  0
 19 40  1  0
 19 41  1  0
 23 42  1  0
 25 43  1  0
 26 44  1  0
 27 45  1  0
 28 46  1  0
M  END
