
     RDKit          3D

 43 50  0  0  0  0  0  0  0  0999 V2000
   -2.3739   -2.3501    2.9792 C   0  0  0  0  0  0  0  0  0  0  0  0
   -1.0126   -1.9216    2.5480 C   0  0  0  0  0  0  0  0  0  0  0  0
   -1.1038   -1.1404    1.4574 C   0  0  0  0  0  0  0  0  0  0  0  0
   -0.0149   -0.5034    0.7065 C   0  0  0  0  0  0  0  0  0  0  0  0
    1.3278   -0.6678    1.0920 C   0  0  0  0  0  0  0  0  0  0  0  0
    2.3322   -0.0533    0.3622 C   0  0  0  0  0  0  0  0  0  0  0  0
    2.0444    0.7020   -0.7148 N   0  0  0  0  0  0  0  0  0  0  0  0
    0.7394    0.8470   -1.0691 C   0  0  0  0  0  0  0  0  0  0  0  0
   -0.3576    0.2810   -0.4169 C   0  0  0  0  0  0  0  0  0  0  0  0
   -1.7902    0.4573   -0.8299 C   0  0  0  0  0  0  0  0  0  0  0  0
   -2.1885    1.2405   -1.9569 C   0  0  0  0  0  0  0  0  0  0  0  0
   -1.3971    1.9281   -2.8095 N   0  0  0  0  0  0  0  0  0  0  0  0
   -2.3582    2.6702   -3.9475 S   0  0  0  0  0  0  0  0  0  0  0  0
   -3.8584    2.1639   -3.4297 N   0  0  0  0  0  0  0  0  0  0  0  0
   -3.5672    1.4207   -2.3704 C   0  0  0  0  0  0  0  0  0  0  0  0
   -4.5945    0.7817   -1.6130 C   0  0  0  0  0  0  0  0  0  0  0  0
   -5.9653    0.8944   -1.9333 C   0  0  0  0  0  0  0  0  0  0  0  0
   -6.7148    0.1773   -1.0351 C   0  0  0  0  0  0  0  0  0  0  0  0
   -5.7442   -0.5899    0.1391 S   0  0  0  0  0  0  0  0  0  0  0  0
   -4.2435    0.0143   -0.5128 C   0  0  0  0  0  0  0  0  0  0  0  0
   -2.8810   -0.1623   -0.1052 C   0  0  0  0  0  0  0  0  0  0  0  0
   -2.5090   -0.9844    1.0749 C   0  0  0  0  0  0  0  0  0  0  0  0
   -3.2444   -1.6862    1.9583 C   0  0  0  0  0  0  0  0  0  0  0  0
    3.7638   -0.1543    0.6708 C   0  0  0  0  0  0  0  0  0  0  0  0
    4.3779   -1.0853    2.0226 S   0  0  0  0  0  0  0  0  0  0  0  0
    6.0389   -0.7083    1.7019 C   0  0  0  0  0  0  0  0  0  0  0  0
    6.0754    0.0856    0.6155 C   0  0  0  0  0  0  0  0  0  0  0  0
    7.1864    0.6122    0.0240 N   0  0  0  0  0  0  0  0  0  0  0  0
    6.6194    1.3286   -1.0275 C   0  0  0  0  0  0  0  0  0  0  0  0
    5.2129    1.2119   -1.0342 C   0  0  0  0  0  0  0  0  0  0  0  0
    4.8508    0.3827    0.0621 C   0  0  0  0  0  0  0  0  0  0  0  0
   -2.6027   -1.9919    3.9871 H   0  0  0  0  0  0  0  0  0  0  0  0
   -2.4789   -3.4382    2.9409 H   0  0  0  0  0  0  0  0  0  0  0  0
   -0.1156   -2.2200    3.0673 H   0  0  0  0  0  0  0  0  0  0  0  0
    1.5767   -1.2716    1.9552 H   0  0  0  0  0  0  0  0  0  0  0  0
    0.6443    1.4743   -1.9469 H   0  0  0  0  0  0  0  0  0  0  0  0
   -6.3872    1.4562   -2.7585 H   0  0  0  0  0  0  0  0  0  0  0  0
   -7.7904    0.0656   -1.0106 H   0  0  0  0  0  0  0  0  0  0  0  0
   -4.3119   -1.8068    1.9993 H   0  0  0  0  0  0  0  0  0  0  0  0
    6.8502   -1.0812    2.3106 H   0  0  0  0  0  0  0  0  0  0  0  0
    8.1543    0.4970    0.2972 H   0  0  0  0  0  0  0  0  0  0  0  0
    7.2669    1.8749   -1.7012 H   0  0  0  0  0  0  0  0  0  0  0  0
    4.5442    1.6744   -1.7489 H   0  0  0  0  0  0  0  0  0  0  0  0
  1  2  1  0
  2  3  2  0
  3  4  1  0
  4  5  2  0
  5  6  1  0
  6  7  2  0
  7  8  1  0
  8  9  2  0
  9 10  1  0
 10 11  1  0
 11 12  2  0
 12 13  1  0
 13 14  1  0
 14 15  2  0
 15 16  1  0
 16 17  1  0
 17 18  2  0
 18 19  1  0
 19 20  1  0
 20 21  1  0
 21 22  1  0
 22 23  2  0
  6 24  1  0
 24 25  1  0
 25 26  1  0
 26 27  2  0
 27 28  1  0
 28 29  1  0
 29 30  2  0
 30 31  1  0
 23  1  1  0
 31 24  2  0
 22  3  1  0
 31 27  1  0
  9  4  1  0
 21 10  2  0
 15 11  1  0
 20 16  2  0
  1 32  1  0
  1 33  1  0
  2 34  1  0
  5 35  1  0
  8 36  1  0
 17 37  1  0
 18 38  1  0
 23 39  1  0
 26 40  1  0
 28 41  1  0
 29 42  1  0
 30 43  1  0
M  END
