
     RDKit          3D

 47 54  0  0  0  0  0  0  0  0999 V2000
   -0.8581   -3.4374    2.4296 C   0  0  0  0  0  0  0  0  0  0  0  0
    0.4254   -2.8128    1.9833 C   0  0  0  0  0  0  0  0  0  0  0  0
    0.1486   -1.7328    1.2415 C   0  0  0  0  0  0  0  0  0  0  0  0
    0.9976   -0.7533    0.6740 C   0  0  0  0  0  0  0  0  0  0  0  0
    2.4153   -0.7565    0.6052 C   0  0  0  0  0  0  0  0  0  0  0  0
    2.8967    0.3467   -0.0677 C   0  0  0  0  0  0  0  0  0  0  0  0
    1.6148    1.3440   -0.6062 S   0  0  0  0  0  0  0  0  0  0  0  0
    0.3937    0.3666    0.1106 C   0  0  0  0  0  0  0  0  0  0  0  0
   -1.0469    0.6272    0.0233 C   0  0  0  0  0  0  0  0  0  0  0  0
   -1.8863   -0.4269    0.3383 C   0  0  0  0  0  0  0  0  0  0  0  0
   -3.3553   -0.3652   -0.0566 C   0  0  0  0  0  0  0  0  0  0  0  0
   -4.1243   -1.5354   -0.1997 C   0  0  0  0  0  0  0  0  0  0  0  0
   -5.4797   -1.4917   -0.5431 C   0  0  0  0  0  0  0  0  0  0  0  0
   -6.0949   -0.2728   -0.7916 C   0  0  0  0  0  0  0  0  0  0  0  0
   -5.3436    0.8977   -0.7394 C   0  0  0  0  0  0  0  0  0  0  0  0
   -3.9803    0.8561   -0.4021 C   0  0  0  0  0  0  0  0  0  0  0  0
   -3.1251    2.0372   -0.4837 C   0  0  0  0  0  0  0  0  0  0  0  0
   -3.4551    3.3182   -0.7166 C   0  0  0  0  0  0  0  0  0  0  0  0
   -2.2198    4.1582   -0.7115 C   0  0  0  0  0  0  0  0  0  0  0  0
   -1.1527    3.1450   -0.4294 C   0  0  0  0  0  0  0  0  0  0  0  0
   -1.6802    1.9110   -0.3199 C   0  0  0  0  0  0  0  0  0  0  0  0
   -1.2952   -1.5644    1.0876 C   0  0  0  0  0  0  0  0  0  0  0  0
   -1.8864   -2.5270    1.8212 C   0  0  0  0  0  0  0  0  0  0  0  0
    4.2689    0.6684   -0.3436 C   0  0  0  0  0  0  0  0  0  0  0  0
    4.9582    2.2281   -0.0514 S   0  0  0  0  0  0  0  0  0  0  0  0
    6.5212    1.7540   -0.5938 C   0  0  0  0  0  0  0  0  0  0  0  0
    6.4546    0.4581   -0.9688 C   0  0  0  0  0  0  0  0  0  0  0  0
    7.4107   -0.4437   -1.4932 C   0  0  0  0  0  0  0  0  0  0  0  0
    6.8687   -1.7087   -1.7451 C   0  0  0  0  0  0  0  0  0  0  0  0
    5.1629   -1.9149   -1.3729 S   0  0  0  0  0  0  0  0  0  0  0  0
    5.2206   -0.1828   -0.8461 C   0  0  0  0  0  0  0  0  0  0  0  0
   -0.9589   -4.4581    2.0495 H   0  0  0  0  0  0  0  0  0  0  0  0
   -0.9347   -3.4402    3.5209 H   0  0  0  0  0  0  0  0  0  0  0  0
    1.4059   -3.1585    2.2703 H   0  0  0  0  0  0  0  0  0  0  0  0
    3.0505   -1.5308    1.0169 H   0  0  0  0  0  0  0  0  0  0  0  0
   -3.6762   -2.5172   -0.0809 H   0  0  0  0  0  0  0  0  0  0  0  0
   -6.0461   -2.4155   -0.6306 H   0  0  0  0  0  0  0  0  0  0  0  0
   -7.1463   -0.2352   -1.0634 H   0  0  0  0  0  0  0  0  0  0  0  0
   -5.8266    1.8366   -0.9943 H   0  0  0  0  0  0  0  0  0  0  0  0
   -4.4446    3.7140   -0.8806 H   0  0  0  0  0  0  0  0  0  0  0  0
   -2.2615    4.9161    0.0762 H   0  0  0  0  0  0  0  0  0  0  0  0
   -2.0616    4.6405   -1.6804 H   0  0  0  0  0  0  0  0  0  0  0  0
   -0.1238    3.4340   -0.2979 H   0  0  0  0  0  0  0  0  0  0  0  0
   -2.9422   -2.6454    2.0070 H   0  0  0  0  0  0  0  0  0  0  0  0
    7.3532    2.4438   -0.6009 H   0  0  0  0  0  0  0  0  0  0  0  0
    8.4493   -0.2071   -1.6901 H   0  0  0  0  0  0  0  0  0  0  0  0
    7.3899   -2.5671   -2.1468 H   0  0  0  0  0  0  0  0  0  0  0  0
  1  2  1  0
  2  3  2  0
  3  4  1  0
  4  5  1  0
  5  6  2  0
  6  7  1  0
  7  8  1  0
  8  9  1  0
  9 10  2  0
 10 11  1  0
 11 12  2  0
 12 13  1  0
 13 14  2  0
 14 15  1  0
 15 16  2  0
 16 17  1  0
 17 18  2  0
 18 19  1  0
 19 20  1  0
 20 21  2  0
 10 22  1  0
 22 23  2  0
  6 24  1  0
 24 25  1  0
 25 26  1  0
 26 27  2  0
 27 28  1  0
 28 29  2  0
 29 30  1  0
 30 31  1  0
 23  1  1  0
 31 24  2  0
 22  3  1  0
 31 27  1  0
  8  4  2  0
 21  9  1  0
 16 11  1  0
 21 17  1  0
  1 32  1  0
  1 33  1  0
  2 34  1  0
  5 35  1  0
 12 36  1  0
 13 37  1  0
 14 38  1  0
 15 39  1  0
 18 40  1  0
 19 41  1  0
 19 42  1  0
 20 43  1  0
 23 44  1  0
 26 45  1  0
 28 46  1  0
 29 47  1  0
M  END
