
     RDKit          3D

 48 55  0  0  0  0  0  0  0  0999 V2000
   -0.9759   -4.2316   -1.0461 C   0  0  0  0  0  0  0  0  0  0  0  0
    0.2824   -3.4231   -1.0269 C   0  0  0  0  0  0  0  0  0  0  0  0
   -0.0074   -2.1650   -0.6684 C   0  0  0  0  0  0  0  0  0  0  0  0
    0.8222   -1.0190   -0.5924 C   0  0  0  0  0  0  0  0  0  0  0  0
    2.2404   -0.9598   -0.6413 C   0  0  0  0  0  0  0  0  0  0  0  0
    2.7039    0.3194   -0.4129 C   0  0  0  0  0  0  0  0  0  0  0  0
    1.4140    1.4022   -0.1183 S   0  0  0  0  0  0  0  0  0  0  0  0
    0.2132    0.2187   -0.4329 C   0  0  0  0  0  0  0  0  0  0  0  0
   -1.2720    0.4429   -0.3234 C   0  0  0  0  0  0  0  0  0  0  0  0
   -1.9222    1.7043   -0.4519 C   0  0  0  0  0  0  0  0  0  0  0  0
   -1.3255    2.8341   -1.0754 C   0  0  0  0  0  0  0  0  0  0  0  0
   -1.9557    4.0731   -1.1750 C   0  0  0  0  0  0  0  0  0  0  0  0
   -3.2282    4.2233   -0.6697 C   0  0  0  0  0  0  0  0  0  0  0  0
   -3.8679    3.1246   -0.0979 C   0  0  0  0  0  0  0  0  0  0  0  0
   -3.2612    1.8423    0.0115 C   0  0  0  0  0  0  0  0  0  0  0  0
   -3.9513    0.7120    0.5715 C   0  0  0  0  0  0  0  0  0  0  0  0
   -5.2473    0.7960    1.1415 C   0  0  0  0  0  0  0  0  0  0  0  0
   -5.8661   -0.3215    1.6762 C   0  0  0  0  0  0  0  0  0  0  0  0
   -5.2953   -1.5291    1.7083 N   0  0  0  0  0  0  0  0  0  0  0  0
   -4.0595   -1.6117    1.1642 C   0  0  0  0  0  0  0  0  0  0  0  0
   -3.3414   -0.5640    0.5522 C   0  0  0  0  0  0  0  0  0  0  0  0
   -2.0511   -0.7163   -0.0159 C   0  0  0  0  0  0  0  0  0  0  0  0
   -1.4343   -2.0334   -0.3725 C   0  0  0  0  0  0  0  0  0  0  0  0
   -2.0119   -3.2191   -0.6482 C   0  0  0  0  0  0  0  0  0  0  0  0
    4.0694    0.7453   -0.3571 C   0  0  0  0  0  0  0  0  0  0  0  0
    4.7227    2.0491   -1.3009 S   0  0  0  0  0  0  0  0  0  0  0  0
    6.3346    1.8381   -0.6819 C   0  0  0  0  0  0  0  0  0  0  0  0
    6.3007    0.8179    0.1986 C   0  0  0  0  0  0  0  0  0  0  0  0
    7.1412    0.0889    1.0743 C   0  0  0  0  0  0  0  0  0  0  0  0
    6.3338   -0.8770    1.7126 C   0  0  0  0  0  0  0  0  0  0  0  0
    5.0085   -0.8022    1.2877 N   0  0  0  0  0  0  0  0  0  0  0  0
    5.0729    0.2214    0.3837 C   0  0  0  0  0  0  0  0  0  0  0  0
   -0.9324   -5.0564   -0.3292 H   0  0  0  0  0  0  0  0  0  0  0  0
   -1.1756   -4.6225   -2.0481 H   0  0  0  0  0  0  0  0  0  0  0  0
    1.2508   -3.8002   -1.3165 H   0  0  0  0  0  0  0  0  0  0  0  0
    2.8911   -1.8089   -0.8106 H   0  0  0  0  0  0  0  0  0  0  0  0
   -0.3534    2.7570   -1.5542 H   0  0  0  0  0  0  0  0  0  0  0  0
   -1.4506    4.9052   -1.6579 H   0  0  0  0  0  0  0  0  0  0  0  0
   -3.7377    5.1805   -0.7373 H   0  0  0  0  0  0  0  0  0  0  0  0
   -4.8817    3.2992    0.2507 H   0  0  0  0  0  0  0  0  0  0  0  0
   -5.7967    1.7283    1.1933 H   0  0  0  0  0  0  0  0  0  0  0  0
   -6.8584   -0.2589    2.1132 H   0  0  0  0  0  0  0  0  0  0  0  0
   -3.6242   -2.5980    1.2910 H   0  0  0  0  0  0  0  0  0  0  0  0
   -3.0659   -3.4505   -0.6486 H   0  0  0  0  0  0  0  0  0  0  0  0
    7.1518    2.4674   -1.0026 H   0  0  0  0  0  0  0  0  0  0  0  0
    8.2002    0.2301    1.2454 H   0  0  0  0  0  0  0  0  0  0  0  0
    6.6039   -1.6185    2.4537 H   0  0  0  0  0  0  0  0  0  0  0  0
    4.1929   -1.3345    1.5667 H   0  0  0  0  0  0  0  0  0  0  0  0
  1  2  1  0
  2  3  2  0
  3  4  1  0
  4  5  1  0
  5  6  2  0
  6  7  1  0
  7  8  1  0
  8  9  1  0
  9 10  2  0
 10 11  1  0
 11 12  2  0
 12 13  1  0
 13 14  2  0
 14 15  1  0
 15 16  2  0
 16 17  1  0
 17 18  2  0
 18 19  1  0
 19 20  2  0
 20 21  1  0
 21 22  2  0
 22 23  1  0
 23 24  2  0
  6 25  1  0
 25 26  1  0
 26 27  1  0
 27 28  2  0
 28 29  1  0
 29 30  2  0
 30 31  1  0
 31 32  1  0
 24  1  1  0
 32 25  2  0
 23  3  1  0
 32 28  1  0
  8  4  2  0
 22  9  1  0
 15 10  1  0
 21 16  1  0
  1 33  1  0
  1 34  1  0
  2 35  1  0
  5 36  1  0
 11 37  1  0
 12 38  1  0
 13 39  1  0
 14 40  1  0
 17 41  1  0
 18 42  1  0
 20 43  1  0
 24 44  1  0
 27 45  1  0
 29 46  1  0
 30 47  1  0
 31 48  1  0
M  END
