
     RDKit          3D

 39 44  0  0  0  0  0  0  0  0999 V2000
   -4.0200   -3.1168    0.7009 C   0  0  0  0  0  0  0  0  0  0  0  0
   -4.7196   -1.8222    0.4109 C   0  0  0  0  0  0  0  0  0  0  0  0
   -3.8072   -0.8708    0.1745 C   0  0  0  0  0  0  0  0  0  0  0  0
   -3.9570    0.5025   -0.1429 C   0  0  0  0  0  0  0  0  0  0  0  0
   -5.0913    1.3190   -0.3145 C   0  0  0  0  0  0  0  0  0  0  0  0
   -4.6236    2.5813   -0.6161 C   0  0  0  0  0  0  0  0  0  0  0  0
   -3.2485    2.5426   -0.6296 N   0  0  0  0  0  0  0  0  0  0  0  0
   -2.8194    1.2714   -0.3405 C   0  0  0  0  0  0  0  0  0  0  0  0
   -1.4323    0.7798   -0.2487 C   0  0  0  0  0  0  0  0  0  0  0  0
   -0.3272    1.6134   -0.4608 C   0  0  0  0  0  0  0  0  0  0  0  0
    0.9494    1.0675   -0.3545 C   0  0  0  0  0  0  0  0  0  0  0  0
    2.6188    1.8985   -0.5752 Si  0  0  0  0  0  4  0  0  0  0  0  0
    3.4438    0.2582   -0.2065 C   0  0  0  0  0  0  0  0  0  0  0  0
    2.5514   -0.7243    0.0368 C   0  0  0  0  0  0  0  0  0  0  0  0
    1.1428   -0.2980   -0.0396 C   0  0  0  0  0  0  0  0  0  0  0  0
    0.0523   -1.1340    0.1728 C   0  0  0  0  0  0  0  0  0  0  0  0
   -1.2429   -0.6070    0.0712 C   0  0  0  0  0  0  0  0  0  0  0  0
   -2.4573   -1.4353    0.2839 C   0  0  0  0  0  0  0  0  0  0  0  0
   -2.5684   -2.7402    0.5896 C   0  0  0  0  0  0  0  0  0  0  0  0
    4.8466    0.0515   -0.1810 C   0  0  0  0  0  0  0  0  0  0  0  0
    5.9091    0.9266   -0.4031 C   0  0  0  0  0  0  0  0  0  0  0  0
    7.1197    0.2073   -0.2545 C   0  0  0  0  0  0  0  0  0  0  0  0
    6.7542   -1.0758    0.0516 C   0  0  0  0  0  0  0  0  0  0  0  0
    5.4066   -1.1828    0.0986 O   0  0  0  0  0  0  0  0  0  0  0  0
   -4.2564   -3.4756    1.7070 H   0  0  0  0  0  0  0  0  0  0  0  0
   -4.2848   -3.8813   -0.0353 H   0  0  0  0  0  0  0  0  0  0  0  0
   -5.7900   -1.6920    0.3981 H   0  0  0  0  0  0  0  0  0  0  0  0
   -6.1305    1.0311   -0.2305 H   0  0  0  0  0  0  0  0  0  0  0  0
   -5.1487    3.5041   -0.8224 H   0  0  0  0  0  0  0  0  0  0  0  0
   -2.6511    3.3335   -0.8235 H   0  0  0  0  0  0  0  0  0  0  0  0
   -0.4522    2.6629   -0.7032 H   0  0  0  0  0  0  0  0  0  0  0  0
    2.8362    2.3674   -1.9687 H   0  0  0  0  0  0  0  0  0  0  0  0
    2.8756    2.9332    0.4604 H   0  0  0  0  0  0  0  0  0  0  0  0
    2.8103   -1.7494    0.2714 H   0  0  0  0  0  0  0  0  0  0  0  0
    0.2129   -2.1794    0.4137 H   0  0  0  0  0  0  0  0  0  0  0  0
   -1.7603   -3.4386    0.7390 H   0  0  0  0  0  0  0  0  0  0  0  0
    5.8278    1.9766   -0.6475 H   0  0  0  0  0  0  0  0  0  0  0  0
    8.1287    0.5799   -0.3581 H   0  0  0  0  0  0  0  0  0  0  0  0
    7.3025   -1.9848    0.2554 H   0  0  0  0  0  0  0  0  0  0  0  0
  1  2  1  0
  2  3  2  0
  3  4  1  0
  4  5  1  0
  5  6  2  0
  6  7  1  0
  7  8  1  0
  8  9  1  0
  9 10  2  0
 10 11  1  0
 11 12  1  0
 12 13  1  0
 13 14  2  0
 14 15  1  0
 15 16  1  0
 16 17  2  0
 17 18  1  0
 18 19  2  0
 13 20  1  0
 20 21  2  0
 21 22  1  0
 22 23  2  0
 23 24  1  0
 19  1  1  0
 24 20  1  0
 18  3  1  0
  8  4  2  0
 17  9  1  0
 15 11  2  0
  1 25  1  0
  1 26  1  0
  2 27  1  0
  5 28  1  0
  6 29  1  0
  7 30  1  0
 10 31  1  0
 12 32  1  0
 12 33  1  0
 14 34  1  0
 16 35  1  0
 19 36  1  0
 21 37  1  0
 22 38  1  0
 23 39  1  0
M  END
