
     RDKit          3D

 42 48  0  0  0  0  0  0  0  0999 V2000
   -4.5541   -3.2658    0.2984 C   0  0  0  0  0  0  0  0  0  0  0  0
   -5.3249   -2.0354   -0.0775 C   0  0  0  0  0  0  0  0  0  0  0  0
   -4.4804   -1.0019   -0.1857 C   0  0  0  0  0  0  0  0  0  0  0  0
   -4.7093    0.3579   -0.5134 C   0  0  0  0  0  0  0  0  0  0  0  0
   -5.8774    1.0763   -0.8316 C   0  0  0  0  0  0  0  0  0  0  0  0
   -5.4859    2.3794   -1.0598 C   0  0  0  0  0  0  0  0  0  0  0  0
   -4.1231    2.4602   -0.8875 N   0  0  0  0  0  0  0  0  0  0  0  0
   -3.6273    1.2253   -0.5516 C   0  0  0  0  0  0  0  0  0  0  0  0
   -2.2276    0.8516   -0.2762 C   0  0  0  0  0  0  0  0  0  0  0  0
   -1.1831    1.7818   -0.3339 C   0  0  0  0  0  0  0  0  0  0  0  0
    0.1302    1.3490   -0.0587 C   0  0  0  0  0  0  0  0  0  0  0  0
    1.5557    2.3158   -0.0712 S   0  0  0  0  0  0  0  0  0  0  0  0
    2.5571    1.0003    0.3517 C   0  0  0  0  0  0  0  0  0  0  0  0
    1.8243   -0.1579    0.5008 C   0  0  0  0  0  0  0  0  0  0  0  0
    0.4190    0.0240    0.2685 C   0  0  0  0  0  0  0  0  0  0  0  0
   -0.6470   -0.9069    0.3251 C   0  0  0  0  0  0  0  0  0  0  0  0
   -1.9622   -0.5028    0.0553 C   0  0  0  0  0  0  0  0  0  0  0  0
   -3.1105   -1.4435    0.1009 C   0  0  0  0  0  0  0  0  0  0  0  0
   -3.1407   -2.7579    0.3837 C   0  0  0  0  0  0  0  0  0  0  0  0
    3.9800    1.1423    0.4943 C   0  0  0  0  0  0  0  0  0  0  0  0
    4.6833    2.2981    1.5763 S   0  0  0  0  0  0  0  0  0  0  0  0
    6.2995    1.8240    1.1917 C   0  0  0  0  0  0  0  0  0  0  0  0
    6.2983    0.8164    0.2662 C   0  0  0  0  0  0  0  0  0  0  0  0
    7.3836    0.1173   -0.3509 C   0  0  0  0  0  0  0  0  0  0  0  0
    7.0147   -0.8267   -1.2443 C   0  0  0  0  0  0  0  0  0  0  0  0
    5.1088   -0.9263   -1.4048 Si  0  0  0  0  0  4  0  0  0  0  0  0
    4.9814    0.4426   -0.1153 C   0  0  0  0  0  0  0  0  0  0  0  0
   -4.8879   -3.6608    1.2624 H   0  0  0  0  0  0  0  0  0  0  0  0
   -4.6474   -4.0392   -0.4696 H   0  0  0  0  0  0  0  0  0  0  0  0
   -6.3916   -2.0018   -0.2324 H   0  0  0  0  0  0  0  0  0  0  0  0
   -6.8894    0.6989   -0.8901 H   0  0  0  0  0  0  0  0  0  0  0  0
   -6.0574    3.2573   -1.3291 H   0  0  0  0  0  0  0  0  0  0  0  0
   -3.5770    3.3036   -0.9932 H   0  0  0  0  0  0  0  0  0  0  0  0
   -1.3604    2.8217   -0.5835 H   0  0  0  0  0  0  0  0  0  0  0  0
    2.2663   -1.1074    0.7782 H   0  0  0  0  0  0  0  0  0  0  0  0
   -0.4275   -1.9388    0.5815 H   0  0  0  0  0  0  0  0  0  0  0  0
   -2.2997   -3.3831    0.6378 H   0  0  0  0  0  0  0  0  0  0  0  0
    7.1378    2.3149    1.6655 H   0  0  0  0  0  0  0  0  0  0  0  0
    8.4181    0.3372   -0.1132 H   0  0  0  0  0  0  0  0  0  0  0  0
    7.6537   -1.4708   -1.8264 H   0  0  0  0  0  0  0  0  0  0  0  0
    4.6048   -2.2403   -0.9313 H   0  0  0  0  0  0  0  0  0  0  0  0
    4.6752   -0.5285   -2.7667 H   0  0  0  0  0  0  0  0  0  0  0  0
  1  2  1  0
  2  3  2  0
  3  4  1  0
  4  5  1  0
  5  6  2  0
  6  7  1  0
  7  8  1  0
  8  9  1  0
  9 10  2  0
 10 11  1  0
 11 12  1  0
 12 13  1  0
 13 14  2  0
 14 15  1  0
 15 16  1  0
 16 17  2  0
 17 18  1  0
 18 19  2  0
 13 20  1  0
 20 21  1  0
 21 22  1  0
 22 23  2  0
 23 24  1  0
 24 25  2  0
 25 26  1  0
 26 27  1  0
 19  1  1  0
 27 20  2  0
 18  3  1  0
 27 23  1  0
  8  4  2  0
 17  9  1  0
 15 11  2  0
  1 28  1  0
  1 29  1  0
  2 30  1  0
  5 31  1  0
  6 32  1  0
  7 33  1  0
 10 34  1  0
 14 35  1  0
 16 36  1  0
 19 37  1  0
 22 38  1  0
 24 39  1  0
 25 40  1  0
 26 41  1  0
 26 42  1  0
M  END
