
     RDKit          3D

 44 50  0  0  0  0  0  0  0  0999 V2000
    0.7252   -1.4015   -0.0490 Si  0  0  0  0  0  4  0  0  0  0  0  0
    1.6297    0.2343    0.1786 C   0  0  0  0  0  0  0  0  0  0  0  0
    0.7134    1.2324    0.2909 C   0  0  0  0  0  0  0  0  0  0  0  0
   -0.7229    0.8494    0.2153 C   0  0  0  0  0  0  0  0  0  0  0  0
   -0.8957   -0.5387    0.0330 C   0  0  0  0  0  0  0  0  0  0  0  0
   -2.1728   -1.0878   -0.0610 C   0  0  0  0  0  0  0  0  0  0  0  0
   -2.5748   -2.3900   -0.2363 N   0  0  0  0  0  0  0  0  0  0  0  0
   -3.9422   -2.4331   -0.2666 C   0  0  0  0  0  0  0  0  0  0  0  0
   -4.9448   -3.4279   -0.4131 C   0  0  0  0  0  0  0  0  0  0  0  0
   -6.1914   -2.8445   -0.3604 C   0  0  0  0  0  0  0  0  0  0  0  0
   -6.1601   -1.1406   -0.1399 S   0  0  0  0  0  0  0  0  0  0  0  0
   -4.4214   -1.1655   -0.1117 C   0  0  0  0  0  0  0  0  0  0  0  0
   -3.3062   -0.2656    0.0246 C   0  0  0  0  0  0  0  0  0  0  0  0
   -3.1398    1.1465    0.2099 C   0  0  0  0  0  0  0  0  0  0  0  0
   -4.2702    1.9888    0.2981 C   0  0  0  0  0  0  0  0  0  0  0  0
   -4.1295    3.3642    0.4781 C   0  0  0  0  0  0  0  0  0  0  0  0
   -2.8626    3.9231    0.5732 C   0  0  0  0  0  0  0  0  0  0  0  0
   -1.7311    3.1082    0.4886 C   0  0  0  0  0  0  0  0  0  0  0  0
   -1.8344    1.7097    0.3062 C   0  0  0  0  0  0  0  0  0  0  0  0
    3.0911    0.4283    0.2301 C   0  0  0  0  0  0  0  0  0  0  0  0
    3.6874    1.7208    0.4074 C   0  0  0  0  0  0  0  0  0  0  0  0
    5.0963    2.0076    0.4699 C   0  0  0  0  0  0  0  0  0  0  0  0
    6.0976    1.0319    0.3624 C   0  0  0  0  0  0  0  0  0  0  0  0
    5.5311   -0.2202    0.1908 C   0  0  0  0  0  0  0  0  0  0  0  0
    6.2623   -1.3710    0.0558 C   0  0  0  0  0  0  0  0  0  0  0  0
    5.3598   -2.3921   -0.0920 N   0  0  0  0  0  0  0  0  0  0  0  0
    4.0686   -1.8987   -0.0519 C   0  0  0  0  0  0  0  0  0  0  0  0
    4.1235   -0.5334    0.1250 C   0  0  0  0  0  0  0  0  0  0  0  0
    0.9142   -2.3514    1.0792 H   0  0  0  0  0  0  0  0  0  0  0  0
    0.9587   -2.0347   -1.3740 H   0  0  0  0  0  0  0  0  0  0  0  0
    0.9618    2.2732    0.4298 H   0  0  0  0  0  0  0  0  0  0  0  0
   -1.9915   -3.2109   -0.3317 H   0  0  0  0  0  0  0  0  0  0  0  0
   -4.7730   -4.4879   -0.5468 H   0  0  0  0  0  0  0  0  0  0  0  0
   -7.1491   -3.3404   -0.4417 H   0  0  0  0  0  0  0  0  0  0  0  0
   -5.2757    1.5866    0.2279 H   0  0  0  0  0  0  0  0  0  0  0  0
   -5.0116    3.9956    0.5435 H   0  0  0  0  0  0  0  0  0  0  0  0
   -2.7496    4.9950    0.7135 H   0  0  0  0  0  0  0  0  0  0  0  0
   -0.7605    3.5892    0.5682 H   0  0  0  0  0  0  0  0  0  0  0  0
    3.0433    2.5936    0.5081 H   0  0  0  0  0  0  0  0  0  0  0  0
    5.3977    3.0461    0.6091 H   0  0  0  0  0  0  0  0  0  0  0  0
    7.1545    1.2499    0.4096 H   0  0  0  0  0  0  0  0  0  0  0  0
    7.3268   -1.5620    0.0505 H   0  0  0  0  0  0  0  0  0  0  0  0
    5.6010   -3.3672   -0.2133 H   0  0  0  0  0  0  0  0  0  0  0  0
    3.2670   -2.6091   -0.1578 H   0  0  0  0  0  0  0  0  0  0  0  0
  1  2  1  0
  2  3  2  0
  3  4  1  0
  4  5  2  0
  5  6  1  0
  6  7  1  0
  7  8  1  0
  8  9  1  0
  9 10  2  0
 10 11  1  0
 11 12  1  0
 12 13  1  0
 13 14  1  0
 14 15  2  0
 15 16  1  0
 16 17  2  0
 17 18  1  0
 18 19  2  0
  2 20  1  0
 20 21  2  0
 21 22  1  0
 22 23  2  0
 23 24  1  0
 24 25  2  0
 25 26  1  0
 26 27  1  0
 27 28  2  0
  5  1  1  0
 13  6  2  0
 19 14  1  0
 28 20  1  0
 19  4  1  0
 28 24  1  0
 12  8  2  0
  1 29  1  0
  1 30  1  0
  3 31  1  0
  7 32  1  0
  9 33  1  0
 10 34  1  0
 15 35  1  0
 16 36  1  0
 17 37  1  0
 18 38  1  0
 21 39  1  0
 22 40  1  0
 23 41  1  0
 25 42  1  0
 26 43  1  0
 27 44  1  0
M  END
