
     RDKit          3D

 47 53  0  0  0  0  0  0  0  0999 V2000
   -2.4233   -3.9066   -0.3858 Si  0  0  0  0  0  4  0  0  0  0  0  0
   -3.4923   -2.4092   -0.0897 C   0  0  0  0  0  0  0  0  0  0  0  0
   -2.7579   -1.2815    0.0198 C   0  0  0  0  0  0  0  0  0  0  0  0
   -3.2934    0.0602    0.2654 C   0  0  0  0  0  0  0  0  0  0  0  0
   -2.4202    1.0807    0.4178 C   0  0  0  0  0  0  0  0  0  0  0  0
   -0.9514    0.9154    0.3212 C   0  0  0  0  0  0  0  0  0  0  0  0
   -0.1440    2.0499    0.4889 C   0  0  0  0  0  0  0  0  0  0  0  0
    1.2333    1.8708    0.3787 C   0  0  0  0  0  0  0  0  0  0  0  0
    2.1498    2.8622    0.5114 O   0  0  0  0  0  0  0  0  0  0  0  0
    3.3742    2.3016    0.3381 C   0  0  0  0  0  0  0  0  0  0  0  0
    4.5696    3.0105    0.4029 C   0  0  0  0  0  0  0  0  0  0  0  0
    5.7442    2.2848    0.2014 C   0  0  0  0  0  0  0  0  0  0  0  0
    5.7217    0.9068   -0.0543 C   0  0  0  0  0  0  0  0  0  0  0  0
    6.9197    0.2037   -0.2528 C   0  0  0  0  0  0  0  0  0  0  0  0
    6.9133   -1.1683   -0.5079 C   0  0  0  0  0  0  0  0  0  0  0  0
    5.7081   -1.8597   -0.5686 C   0  0  0  0  0  0  0  0  0  0  0  0
    4.5023   -1.1833   -0.3747 C   0  0  0  0  0  0  0  0  0  0  0  0
    4.4847    0.2042   -0.1154 C   0  0  0  0  0  0  0  0  0  0  0  0
    3.2700    0.9344    0.0891 C   0  0  0  0  0  0  0  0  0  0  0  0
    1.8575    0.6570    0.1168 C   0  0  0  0  0  0  0  0  0  0  0  0
    1.0300   -0.4753   -0.0475 C   0  0  0  0  0  0  0  0  0  0  0  0
   -0.3712   -0.3482    0.0552 C   0  0  0  0  0  0  0  0  0  0  0  0
   -1.2927   -1.4996   -0.0971 C   0  0  0  0  0  0  0  0  0  0  0  0
   -0.9328   -2.7827   -0.3147 C   0  0  0  0  0  0  0  0  0  0  0  0
   -4.7319    0.4017    0.3431 C   0  0  0  0  0  0  0  0  0  0  0  0
   -5.5823    0.1532   -0.7323 C   0  0  0  0  0  0  0  0  0  0  0  0
   -6.9242    0.5097   -0.6253 C   0  0  0  0  0  0  0  0  0  0  0  0
   -7.3769    1.1079    0.5440 C   0  0  0  0  0  0  0  0  0  0  0  0
   -6.4636    1.3311    1.5605 C   0  0  0  0  0  0  0  0  0  0  0  0
   -5.1567    0.9993    1.4847 N   0  0  0  0  0  0  0  0  0  0  0  0
   -2.4597   -4.8724    0.7382 H   0  0  0  0  0  0  0  0  0  0  0  0
   -2.6253   -4.4875   -1.7352 H   0  0  0  0  0  0  0  0  0  0  0  0
   -4.5629   -2.5083   -0.0089 H   0  0  0  0  0  0  0  0  0  0  0  0
   -2.7851    2.0871    0.6112 H   0  0  0  0  0  0  0  0  0  0  0  0
   -0.5549    3.0312    0.6949 H   0  0  0  0  0  0  0  0  0  0  0  0
    4.5808    4.0756    0.6012 H   0  0  0  0  0  0  0  0  0  0  0  0
    6.6927    2.8174    0.2474 H   0  0  0  0  0  0  0  0  0  0  0  0
    7.8760    0.7213   -0.2101 H   0  0  0  0  0  0  0  0  0  0  0  0
    7.8515   -1.6961   -0.6588 H   0  0  0  0  0  0  0  0  0  0  0  0
    5.7047   -2.9285   -0.7670 H   0  0  0  0  0  0  0  0  0  0  0  0
    3.5849   -1.7563   -0.4291 H   0  0  0  0  0  0  0  0  0  0  0  0
    1.4738   -1.4405   -0.2510 H   0  0  0  0  0  0  0  0  0  0  0  0
    0.0571   -3.1924   -0.4227 H   0  0  0  0  0  0  0  0  0  0  0  0
   -5.2075   -0.3034   -1.6425 H   0  0  0  0  0  0  0  0  0  0  0  0
   -7.6074    0.3251   -1.4492 H   0  0  0  0  0  0  0  0  0  0  0  0
   -8.4152    1.3978    0.6599 H   0  0  0  0  0  0  0  0  0  0  0  0
   -6.7670    1.7990    2.4927 H   0  0  0  0  0  0  0  0  0  0  0  0
  1  2  1  0
  2  3  2  0
  3  4  1  0
  4  5  2  0
  5  6  1  0
  6  7  2  0
  7  8  1  0
  8  9  1  0
  9 10  1  0
 10 11  2  0
 11 12  1  0
 12 13  2  0
 13 14  1  0
 14 15  2  0
 15 16  1  0
 16 17  2  0
 17 18  1  0
 18 19  2  0
 19 20  1  0
 20 21  1  0
 21 22  2  0
 22 23  1  0
 23 24  2  0
  4 25  1  0
 25 26  2  0
 26 27  1  0
 27 28  2  0
 28 29  1  0
 29 30  2  0
 24  1  1  0
 30 25  1  0
 23  3  1  0
 22  6  1  0
 20  8  2  0
 19 10  1  0
 18 13  1  0
  1 31  1  0
  1 32  1  0
  2 33  1  0
  5 34  1  0
  7 35  1  0
 11 36  1  0
 12 37  1  0
 14 38  1  0
 15 39  1  0
 16 40  1  0
 17 41  1  0
 21 42  1  0
 24 43  1  0
 26 44  1  0
 27 45  1  0
 28 46  1  0
 29 47  1  0
M  END
