
     RDKit          3D

 39 44  0  0  0  0  0  0  0  0999 V2000
   -3.8969   -2.9810   -0.0785 C   0  0  0  0  0  0  0  0  0  0  0  0
   -4.7588   -1.7561   -0.0286 C   0  0  0  0  0  0  0  0  0  0  0  0
   -3.9787   -0.6682    0.0046 C   0  0  0  0  0  0  0  0  0  0  0  0
   -4.3206    0.7114    0.0563 C   0  0  0  0  0  0  0  0  0  0  0  0
   -5.5428    1.4101    0.0901 C   0  0  0  0  0  0  0  0  0  0  0  0
   -5.2276    2.7563    0.1358 C   0  0  0  0  0  0  0  0  0  0  0  0
   -3.8559    2.8854    0.1305 N   0  0  0  0  0  0  0  0  0  0  0  0
   -3.2976    1.6405    0.0820 C   0  0  0  0  0  0  0  0  0  0  0  0
   -1.9105    1.2704    0.0588 C   0  0  0  0  0  0  0  0  0  0  0  0
   -0.6131    2.3466    0.0878 S   0  0  0  0  0  0  0  0  0  0  0  0
    0.5365    1.0609    0.0338 C   0  0  0  0  0  0  0  0  0  0  0  0
    1.9350    1.2032    0.0289 C   0  0  0  0  0  0  0  0  0  0  0  0
    2.7054    0.0484   -0.0177 C   0  0  0  0  0  0  0  0  0  0  0  0
    2.1210   -1.1716   -0.0571 N   0  0  0  0  0  0  0  0  0  0  0  0
    0.7725   -1.3062   -0.0523 C   0  0  0  0  0  0  0  0  0  0  0  0
   -0.0787   -0.1953   -0.0066 C   0  0  0  0  0  0  0  0  0  0  0  0
   -1.5143   -0.0628    0.0084 C   0  0  0  0  0  0  0  0  0  0  0  0
   -2.5538   -1.0705   -0.0200 C   0  0  0  0  0  0  0  0  0  0  0  0
   -2.5038   -2.4111   -0.0682 C   0  0  0  0  0  0  0  0  0  0  0  0
    4.1953    0.0452   -0.0284 C   0  0  0  0  0  0  0  0  0  0  0  0
    4.9689    1.2224    0.0087 C   0  0  0  0  0  0  0  0  0  0  0  0
    6.3699    1.1862   -0.0025 C   0  0  0  0  0  0  0  0  0  0  0  0
    7.0391   -0.0312   -0.0511 C   0  0  0  0  0  0  0  0  0  0  0  0
    6.3089   -1.2122   -0.0886 C   0  0  0  0  0  0  0  0  0  0  0  0
    4.9102   -1.1706   -0.0773 C   0  0  0  0  0  0  0  0  0  0  0  0
   -4.0661   -3.6176    0.7949 H   0  0  0  0  0  0  0  0  0  0  0  0
   -4.0790   -3.5538   -0.9926 H   0  0  0  0  0  0  0  0  0  0  0  0
   -5.8375   -1.7641   -0.0211 H   0  0  0  0  0  0  0  0  0  0  0  0
   -6.5417    0.9947    0.0824 H   0  0  0  0  0  0  0  0  0  0  0  0
   -5.8594    3.6337    0.1717 H   0  0  0  0  0  0  0  0  0  0  0  0
   -3.3425    3.7565    0.1579 H   0  0  0  0  0  0  0  0  0  0  0  0
    2.3697    2.1930    0.0610 H   0  0  0  0  0  0  0  0  0  0  0  0
    0.4204   -2.3288   -0.0862 H   0  0  0  0  0  0  0  0  0  0  0  0
   -1.6274   -3.0346   -0.0968 H   0  0  0  0  0  0  0  0  0  0  0  0
    4.5037    2.2027    0.0474 H   0  0  0  0  0  0  0  0  0  0  0  0
    6.9352    2.1143    0.0271 H   0  0  0  0  0  0  0  0  0  0  0  0
    8.1251   -0.0595   -0.0598 H   0  0  0  0  0  0  0  0  0  0  0  0
    6.8199   -2.1706   -0.1268 H   0  0  0  0  0  0  0  0  0  0  0  0
    4.3700   -2.1163   -0.1077 H   0  0  0  0  0  0  0  0  0  0  0  0
  1  2  1  0
  2  3  2  0
  3  4  1  0
  4  5  1  0
  5  6  2  0
  6  7  1  0
  7  8  1  0
  8  9  1  0
  9 10  1  0
 10 11  1  0
 11 12  2  0
 12 13  1  0
 13 14  2  0
 14 15  1  0
 15 16  2  0
 16 17  1  0
 17 18  1  0
 18 19  2  0
 13 20  1  0
 20 21  2  0
 21 22  1  0
 22 23  2  0
 23 24  1  0
 24 25  2  0
 19  1  1  0
 25 20  1  0
 18  3  1  0
  8  4  2  0
 17  9  2  0
 16 11  1  0
  1 26  1  0
  1 27  1  0
  2 28  1  0
  5 29  1  0
  6 30  1  0
  7 31  1  0
 12 32  1  0
 15 33  1  0
 19 34  1  0
 21 35  1  0
 22 36  1  0
 23 37  1  0
 24 38  1  0
 25 39  1  0
M  END
