
     RDKit          3D

 41 47  0  0  0  0  0  0  0  0999 V2000
    0.4215   -2.5641   -3.4047 C   0  0  0  0  0  0  0  0  0  0  0  0
   -0.8511   -2.0474   -2.7994 C   0  0  0  0  0  0  0  0  0  0  0  0
   -0.5698   -1.2702   -1.7395 C   0  0  0  0  0  0  0  0  0  0  0  0
   -1.4730   -0.5443   -0.8291 C   0  0  0  0  0  0  0  0  0  0  0  0
   -2.8727   -0.5852   -0.9792 C   0  0  0  0  0  0  0  0  0  0  0  0
   -3.7281    0.1071   -0.1108 C   0  0  0  0  0  0  0  0  0  0  0  0
   -5.1386    0.0468   -0.2876 C   0  0  0  0  0  0  0  0  0  0  0  0
   -6.0669    0.7101    0.5369 C   0  0  0  0  0  0  0  0  0  0  0  0
   -5.5263    1.4733    1.5952 C   0  0  0  0  0  0  0  0  0  0  0  0
   -6.2367    2.1777    2.4895 N   0  0  0  0  0  0  0  0  0  0  0  0
   -5.1347    2.8843    3.5102 S   0  0  0  0  0  0  0  0  0  0  0  0
   -3.7113    2.3295    2.8648 N   0  0  0  0  0  0  0  0  0  0  0  0
   -4.0368    1.5586    1.8109 C   0  0  0  0  0  0  0  0  0  0  0  0
   -3.1338    0.8601    0.9376 C   0  0  0  0  0  0  0  0  0  0  0  0
   -1.7310    0.9046    1.0928 C   0  0  0  0  0  0  0  0  0  0  0  0
   -0.8774    0.2084    0.2192 C   0  0  0  0  0  0  0  0  0  0  0  0
    0.6056    0.2568    0.3851 C   0  0  0  0  0  0  0  0  0  0  0  0
    1.0737    1.0047    1.4185 N   0  0  0  0  0  0  0  0  0  0  0  0
    2.4182    1.0696    1.5973 C   0  0  0  0  0  0  0  0  0  0  0  0
    3.3601    0.4264    0.8004 C   0  0  0  0  0  0  0  0  0  0  0  0
    2.8530   -0.3387   -0.2588 C   0  0  0  0  0  0  0  0  0  0  0  0
    1.4740   -0.4335   -0.4799 C   0  0  0  0  0  0  0  0  0  0  0  0
    0.8774   -1.2144   -1.5663 C   0  0  0  0  0  0  0  0  0  0  0  0
    1.4673   -1.9557   -2.5187 C   0  0  0  0  0  0  0  0  0  0  0  0
    4.8157    0.5077    1.0087 C   0  0  0  0  0  0  0  0  0  0  0  0
    5.7003   -0.1097    0.2447 N   0  0  0  0  0  0  0  0  0  0  0  0
    6.9838    0.1505    0.6801 C   0  0  0  0  0  0  0  0  0  0  0  0
    7.0804    0.9696    1.7805 C   0  0  0  0  0  0  0  0  0  0  0  0
    5.5148    1.4317    2.2903 S   0  0  0  0  0  0  0  0  0  0  0  0
    0.5331   -2.2239   -4.4383 H   0  0  0  0  0  0  0  0  0  0  0  0
    0.4602   -3.6566   -3.3684 H   0  0  0  0  0  0  0  0  0  0  0  0
   -1.8286   -2.2870   -3.1869 H   0  0  0  0  0  0  0  0  0  0  0  0
   -3.3047   -1.1684   -1.7893 H   0  0  0  0  0  0  0  0  0  0  0  0
   -5.5418   -0.5472   -1.1102 H   0  0  0  0  0  0  0  0  0  0  0  0
   -7.1357    0.6429    0.3741 H   0  0  0  0  0  0  0  0  0  0  0  0
   -1.3074    1.4918    1.9077 H   0  0  0  0  0  0  0  0  0  0  0  0
    2.7027    1.6877    2.4445 H   0  0  0  0  0  0  0  0  0  0  0  0
    3.5468   -0.8626   -0.9127 H   0  0  0  0  0  0  0  0  0  0  0  0
    2.5267   -2.1107   -2.6541 H   0  0  0  0  0  0  0  0  0  0  0  0
    7.8218   -0.2880    0.1518 H   0  0  0  0  0  0  0  0  0  0  0  0
    7.9693    1.3078    2.2930 H   0  0  0  0  0  0  0  0  0  0  0  0
  1  2  1  0
  2  3  2  0
  3  4  1  0
  4  5  2  0
  5  6  1  0
  6  7  1  0
  7  8  2  0
  8  9  1  0
  9 10  2  0
 10 11  1  0
 11 12  1  0
 12 13  2  0
 13 14  1  0
 14 15  1  0
 15 16  2  0
 16 17  1  0
 17 18  2  0
 18 19  1  0
 19 20  2  0
 20 21  1  0
 21 22  2  0
 22 23  1  0
 23 24  2  0
 20 25  1  0
 25 26  2  0
 26 27  1  0
 27 28  2  0
 28 29  1  0
 24  1  1  0
 29 25  1  0
 23  3  1  0
 16  4  1  0
 22 17  1  0
 14  6  2  0
 13  9  1  0
  1 30  1  0
  1 31  1  0
  2 32  1  0
  5 33  1  0
  7 34  1  0
  8 35  1  0
 15 36  1  0
 19 37  1  0
 21 38  1  0
 24 39  1  0
 27 40  1  0
 28 41  1  0
M  END
