
     RDKit          3D

 47 54  0  0  0  0  0  0  0  0999 V2000
   -2.3571   -3.9103    0.5591 C   0  0  0  0  0  0  0  0  0  0  0  0
   -3.5073   -3.0388    0.1680 C   0  0  0  0  0  0  0  0  0  0  0  0
   -3.0924   -1.7664    0.0326 C   0  0  0  0  0  0  0  0  0  0  0  0
   -3.8896   -0.5611   -0.2560 C   0  0  0  0  0  0  0  0  0  0  0  0
   -5.3153   -0.6617   -0.4396 C   0  0  0  0  0  0  0  0  0  0  0  0
   -6.1804    0.4396   -0.5635 C   0  0  0  0  0  0  0  0  0  0  0  0
   -5.4978    1.6398   -0.4109 C   0  0  0  0  0  0  0  0  0  0  0  0
   -6.1717    2.8365   -0.3899 C   0  0  0  0  0  0  0  0  0  0  0  0
   -5.1076    4.1389   -0.0716 S   0  0  0  0  0  0  0  0  0  0  0  0
   -3.7513    3.0876    0.0427 C   0  0  0  0  0  0  0  0  0  0  0  0
   -4.0632    1.7752   -0.2414 C   0  0  0  0  0  0  0  0  0  0  0  0
   -3.1596    0.6797   -0.2446 C   0  0  0  0  0  0  0  0  0  0  0  0
   -1.6671    0.7265   -0.2123 C   0  0  0  0  0  0  0  0  0  0  0  0
   -0.9542    1.8568   -0.6347 C   0  0  0  0  0  0  0  0  0  0  0  0
    0.4326    1.9243   -0.5449 C   0  0  0  0  0  0  0  0  0  0  0  0
    1.1656    0.8405   -0.0630 C   0  0  0  0  0  0  0  0  0  0  0  0
    2.5662    0.9409    0.0438 C   0  0  0  0  0  0  0  0  0  0  0  0
    3.3459   -0.1287    0.4858 C   0  0  0  0  0  0  0  0  0  0  0  0
    2.6253   -1.2667    0.8152 C   0  0  0  0  0  0  0  0  0  0  0  0
    1.2767   -1.3985    0.7191 N   0  0  0  0  0  0  0  0  0  0  0  0
    0.5206   -0.3617    0.2878 C   0  0  0  0  0  0  0  0  0  0  0  0
   -0.8957   -0.4219    0.1620 C   0  0  0  0  0  0  0  0  0  0  0  0
   -1.6575   -1.6923    0.3087 C   0  0  0  0  0  0  0  0  0  0  0  0
   -1.2304   -2.9304    0.6196 C   0  0  0  0  0  0  0  0  0  0  0  0
    4.8026   -0.0947    0.6236 C   0  0  0  0  0  0  0  0  0  0  0  0
    5.3813   -0.9573    1.5327 N   0  0  0  0  0  0  0  0  0  0  0  0
    6.7348   -1.0021    1.7359 C   0  0  0  0  0  0  0  0  0  0  0  0
    7.7044   -0.2425    1.0963 C   0  0  0  0  0  0  0  0  0  0  0  0
    7.1764    0.6470    0.1440 C   0  0  0  0  0  0  0  0  0  0  0  0
    7.9036    1.4825   -0.6143 N   0  0  0  0  0  0  0  0  0  0  0  0
    6.8322    2.2986   -1.5802 S   0  0  0  0  0  0  0  0  0  0  0  0
    5.3985    1.6391   -1.0744 N   0  0  0  0  0  0  0  0  0  0  0  0
    5.6913    0.7389   -0.1163 C   0  0  0  0  0  0  0  0  0  0  0  0
   -2.5276   -4.3778    1.5331 H   0  0  0  0  0  0  0  0  0  0  0  0
   -2.1715   -4.6819   -0.1936 H   0  0  0  0  0  0  0  0  0  0  0  0
   -4.5116   -3.4139    0.0563 H   0  0  0  0  0  0  0  0  0  0  0  0
   -5.7780   -1.6473   -0.4675 H   0  0  0  0  0  0  0  0  0  0  0  0
   -7.2497    0.3331   -0.6881 H   0  0  0  0  0  0  0  0  0  0  0  0
   -7.2303    3.0214   -0.5117 H   0  0  0  0  0  0  0  0  0  0  0  0
   -2.8112    3.5276    0.3369 H   0  0  0  0  0  0  0  0  0  0  0  0
   -1.4579    2.7071   -1.0843 H   0  0  0  0  0  0  0  0  0  0  0  0
    0.9338    2.8346   -0.8686 H   0  0  0  0  0  0  0  0  0  0  0  0
    3.0400    1.8845   -0.2187 H   0  0  0  0  0  0  0  0  0  0  0  0
    3.1268   -2.1609    1.1814 H   0  0  0  0  0  0  0  0  0  0  0  0
   -0.2211   -3.2267    0.8577 H   0  0  0  0  0  0  0  0  0  0  0  0
    7.0371   -1.7283    2.4908 H   0  0  0  0  0  0  0  0  0  0  0  0
    8.7611   -0.3287    1.3034 H   0  0  0  0  0  0  0  0  0  0  0  0
  1  2  1  0
  2  3  2  0
  3  4  1  0
  4  5  1  0
  5  6  2  0
  6  7  1  0
  7  8  2  0
  8  9  1  0
  9 10  1  0
 10 11  2  0
 11 12  1  0
 12 13  1  0
 13 14  2  0
 14 15  1  0
 15 16  2  0
 16 17  1  0
 17 18  2  0
 18 19  1  0
 19 20  2  0
 20 21  1  0
 21 22  2  0
 22 23  1  0
 23 24  2  0
 18 25  1  0
 25 26  2  0
 26 27  1  0
 27 28  2  0
 28 29  1  0
 29 30  2  0
 30 31  1  0
 31 32  1  0
 32 33  2  0
 24  1  1  0
 33 25  1  0
 23  3  1  0
 33 29  1  0
 12  4  2  0
 22 13  1  0
 11  7  1  0
 21 16  1  0
  1 34  1  0
  1 35  1  0
  2 36  1  0
  5 37  1  0
  6 38  1  0
  8 39  1  0
 10 40  1  0
 14 41  1  0
 15 42  1  0
 17 43  1  0
 19 44  1  0
 24 45  1  0
 27 46  1  0
 28 47  1  0
M  END
