
     RDKit          3D

 50 57  0  0  0  0  0  0  0  0999 V2000
    2.1571   -4.0978   -0.8770 C   0  0  0  0  0  0  0  0  0  0  0  0
    3.3933   -3.2590   -0.8874 C   0  0  0  0  0  0  0  0  0  0  0  0
    3.0722   -1.9774   -0.6411 C   0  0  0  0  0  0  0  0  0  0  0  0
    3.9342   -0.7922   -0.6432 C   0  0  0  0  0  0  0  0  0  0  0  0
    5.2703   -0.8582   -1.0793 C   0  0  0  0  0  0  0  0  0  0  0  0
    6.0093    0.3030   -1.2810 C   0  0  0  0  0  0  0  0  0  0  0  0
    5.4031    1.5355   -1.0944 C   0  0  0  0  0  0  0  0  0  0  0  0
    4.0792    1.6025   -0.6472 C   0  0  0  0  0  0  0  0  0  0  0  0
    3.3311    0.4507   -0.3229 C   0  0  0  0  0  0  0  0  0  0  0  0
    1.9082    0.5264    0.2087 C   0  0  0  0  0  0  0  0  0  0  0  0
    1.4046    1.6716    0.9456 C   0  0  0  0  0  0  0  0  0  0  0  0
    2.2250    2.6476    1.5742 C   0  0  0  0  0  0  0  0  0  0  0  0
    1.7143    3.7731    2.2271 C   0  0  0  0  0  0  0  0  0  0  0  0
    0.3469    3.9584    2.3022 C   0  0  0  0  0  0  0  0  0  0  0  0
   -0.4996    2.9933    1.7662 C   0  0  0  0  0  0  0  0  0  0  0  0
    0.0047    1.8387    1.1227 C   0  0  0  0  0  0  0  0  0  0  0  0
   -0.8424    0.8224    0.6739 C   0  0  0  0  0  0  0  0  0  0  0  0
   -2.3027    0.7453    0.7123 C   0  0  0  0  0  0  0  0  0  0  0  0
   -2.6977   -0.4500    0.2387 C   0  0  0  0  0  0  0  0  0  0  0  0
   -1.4960   -1.3021   -0.1190 C   0  0  0  0  0  0  0  0  0  0  0  0
   -0.3431   -0.3784    0.1498 C   0  0  0  0  0  0  0  0  0  0  0  0
    1.0222   -0.5710   -0.0483 C   0  0  0  0  0  0  0  0  0  0  0  0
    1.6314   -1.8611   -0.4377 C   0  0  0  0  0  0  0  0  0  0  0  0
    1.0921   -3.0861   -0.5789 C   0  0  0  0  0  0  0  0  0  0  0  0
   -4.0682   -0.8107    0.1669 C   0  0  0  0  0  0  0  0  0  0  0  0
   -4.6378   -2.3677    0.6656 S   0  0  0  0  0  0  0  0  0  0  0  0
   -6.2755   -2.0087    0.2820 C   0  0  0  0  0  0  0  0  0  0  0  0
   -6.3176   -0.7588   -0.2278 C   0  0  0  0  0  0  0  0  0  0  0  0
   -7.3728    0.0390   -0.7299 C   0  0  0  0  0  0  0  0  0  0  0  0
   -6.9297    1.2867   -1.1813 C   0  0  0  0  0  0  0  0  0  0  0  0
   -5.2058    1.5990   -1.0424 S   0  0  0  0  0  0  0  0  0  0  0  0
   -5.1118   -0.0604   -0.3179 C   0  0  0  0  0  0  0  0  0  0  0  0
    1.9905   -4.5712   -1.8489 H   0  0  0  0  0  0  0  0  0  0  0  0
    2.2046   -4.8629   -0.0966 H   0  0  0  0  0  0  0  0  0  0  0  0
    4.3746   -3.6531   -1.0978 H   0  0  0  0  0  0  0  0  0  0  0  0
    5.7366   -1.8122   -1.3071 H   0  0  0  0  0  0  0  0  0  0  0  0
    7.0358    0.2440   -1.6318 H   0  0  0  0  0  0  0  0  0  0  0  0
    5.9487    2.4505   -1.3103 H   0  0  0  0  0  0  0  0  0  0  0  0
    3.6302    2.5912   -0.5876 H   0  0  0  0  0  0  0  0  0  0  0  0
    3.3048    2.5189    1.6060 H   0  0  0  0  0  0  0  0  0  0  0  0
    2.3911    4.4910    2.6826 H   0  0  0  0  0  0  0  0  0  0  0  0
   -0.0643    4.8296    2.8041 H   0  0  0  0  0  0  0  0  0  0  0  0
   -1.5703    3.1425    1.8806 H   0  0  0  0  0  0  0  0  0  0  0  0
   -2.9362    1.5384    1.0756 H   0  0  0  0  0  0  0  0  0  0  0  0
   -1.5323   -1.5938   -1.1733 H   0  0  0  0  0  0  0  0  0  0  0  0
   -1.4575   -2.1766    0.5371 H   0  0  0  0  0  0  0  0  0  0  0  0
    0.0625   -3.3755   -0.4663 H   0  0  0  0  0  0  0  0  0  0  0  0
   -7.0672   -2.7269    0.4413 H   0  0  0  0  0  0  0  0  0  0  0  0
   -8.4129   -0.2595   -0.7767 H   0  0  0  0  0  0  0  0  0  0  0  0
   -7.5372    2.0722   -1.6099 H   0  0  0  0  0  0  0  0  0  0  0  0
  1  2  1  0
  2  3  2  0
  3  4  1  0
  4  5  2  0
  5  6  1  0
  6  7  2  0
  7  8  1  0
  8  9  2  0
  9 10  1  0
 10 11  2  0
 11 12  1  0
 12 13  2  0
 13 14  1  0
 14 15  2  0
 15 16  1  0
 16 17  2  0
 17 18  1  0
 18 19  2  0
 19 20  1  0
 20 21  1  0
 21 22  2  0
 22 23  1  0
 23 24  2  0
 19 25  1  0
 25 26  1  0
 26 27  1  0
 27 28  2  0
 28 29  1  0
 29 30  2  0
 30 31  1  0
 31 32  1  0
 24  1  1  0
 32 25  2  0
 23  3  1  0
 32 28  1  0
  9  4  1  0
 22 10  1  0
 16 11  1  0
 21 17  1  0
  1 33  1  0
  1 34  1  0
  2 35  1  0
  5 36  1  0
  6 37  1  0
  7 38  1  0
  8 39  1  0
 12 40  1  0
 13 41  1  0
 14 42  1  0
 15 43  1  0
 18 44  1  0
 20 45  1  0
 20 46  1  0
 24 47  1  0
 27 48  1  0
 29 49  1  0
 30 50  1  0
M  END
