
     RDKit          3D

 44 50  0  0  0  0  0  0  0  0999 V2000
   -2.2331   -3.9021    0.4988 C   0  0  0  0  0  0  0  0  0  0  0  0
   -3.3601   -2.9476    0.7232 C   0  0  0  0  0  0  0  0  0  0  0  0
   -2.9125   -1.6866    0.5985 C   0  0  0  0  0  0  0  0  0  0  0  0
   -3.6934   -0.4514    0.5627 C   0  0  0  0  0  0  0  0  0  0  0  0
   -5.0528   -0.3891    0.8901 C   0  0  0  0  0  0  0  0  0  0  0  0
   -5.7277    0.8213    0.8017 C   0  0  0  0  0  0  0  0  0  0  0  0
   -5.0170    1.9297    0.3877 C   0  0  0  0  0  0  0  0  0  0  0  0
   -3.7050    1.9056    0.0693 N   0  0  0  0  0  0  0  0  0  0  0  0
   -3.0376    0.7233    0.1510 C   0  0  0  0  0  0  0  0  0  0  0  0
   -1.5796    0.7268   -0.1308 C   0  0  0  0  0  0  0  0  0  0  0  0
   -0.8276    1.8164   -0.6026 C   0  0  0  0  0  0  0  0  0  0  0  0
   -1.2806    3.0463   -1.0231 C   0  0  0  0  0  0  0  0  0  0  0  0
   -0.1951    3.7965   -1.4068 N   0  0  0  0  0  0  0  0  0  0  0  0
    0.9580    3.0686   -1.2402 C   0  0  0  0  0  0  0  0  0  0  0  0
    0.5946    1.8351   -0.7495 C   0  0  0  0  0  0  0  0  0  0  0  0
    1.4677    0.7822   -0.4020 C   0  0  0  0  0  0  0  0  0  0  0  0
    2.8839    0.8488   -0.4908 C   0  0  0  0  0  0  0  0  0  0  0  0
    3.6760   -0.2145   -0.0588 C   0  0  0  0  0  0  0  0  0  0  0  0
    3.0292   -1.3226    0.4888 C   0  0  0  0  0  0  0  0  0  0  0  0
    1.6252   -1.3852    0.5639 C   0  0  0  0  0  0  0  0  0  0  0  0
    0.7679   -0.3669    0.0822 C   0  0  0  0  0  0  0  0  0  0  0  0
   -0.7137   -0.4201    0.1063 C   0  0  0  0  0  0  0  0  0  0  0  0
   -1.4718   -1.6902    0.3409 C   0  0  0  0  0  0  0  0  0  0  0  0
   -1.0913   -2.9757    0.2099 C   0  0  0  0  0  0  0  0  0  0  0  0
    5.1366   -0.1305   -0.1397 C   0  0  0  0  0  0  0  0  0  0  0  0
    5.9759    0.9455    0.0983 C   0  0  0  0  0  0  0  0  0  0  0  0
    7.3278    0.7225   -0.0861 N   0  0  0  0  0  0  0  0  0  0  0  0
    7.5062   -0.5218   -0.4673 C   0  0  0  0  0  0  0  0  0  0  0  0
    6.0936   -1.4776   -0.6240 S   0  0  0  0  0  0  0  0  0  0  0  0
   -2.0384   -4.5100    1.3869 H   0  0  0  0  0  0  0  0  0  0  0  0
   -2.4354   -4.5525   -0.3573 H   0  0  0  0  0  0  0  0  0  0  0  0
   -4.3810   -3.2616    0.8737 H   0  0  0  0  0  0  0  0  0  0  0  0
   -5.5931   -1.2725    1.2153 H   0  0  0  0  0  0  0  0  0  0  0  0
   -6.7802    0.8967    1.0493 H   0  0  0  0  0  0  0  0  0  0  0  0
   -5.4945    2.9013    0.3010 H   0  0  0  0  0  0  0  0  0  0  0  0
   -2.2730    3.4690   -1.0947 H   0  0  0  0  0  0  0  0  0  0  0  0
   -0.2427    4.7449   -1.7558 H   0  0  0  0  0  0  0  0  0  0  0  0
    1.9149    3.5068   -1.4861 H   0  0  0  0  0  0  0  0  0  0  0  0
    3.3524    1.7405   -0.8980 H   0  0  0  0  0  0  0  0  0  0  0  0
    3.6023   -2.1537    0.8952 H   0  0  0  0  0  0  0  0  0  0  0  0
    1.2162   -2.2505    1.0768 H   0  0  0  0  0  0  0  0  0  0  0  0
   -0.1291   -3.3466   -0.1028 H   0  0  0  0  0  0  0  0  0  0  0  0
    5.6497    1.9281    0.4184 H   0  0  0  0  0  0  0  0  0  0  0  0
    8.4883   -0.9267   -0.6735 H   0  0  0  0  0  0  0  0  0  0  0  0
  1  2  1  0
  2  3  2  0
  3  4  1  0
  4  5  2  0
  5  6  1  0
  6  7  2  0
  7  8  1  0
  8  9  2  0
  9 10  1  0
 10 11  1  0
 11 12  2  0
 12 13  1  0
 13 14  1  0
 14 15  2  0
 15 16  1  0
 16 17  2  0
 17 18  1  0
 18 19  2  0
 19 20  1  0
 20 21  2  0
 21 22  1  0
 22 23  1  0
 23 24  2  0
 18 25  1  0
 25 26  2  0
 26 27  1  0
 27 28  2  0
 28 29  1  0
 24  1  1  0
 29 25  1  0
 23  3  1  0
  9  4  1  0
 22 10  2  0
 15 11  1  0
 21 16  1  0
  1 30  1  0
  1 31  1  0
  2 32  1  0
  5 33  1  0
  6 34  1  0
  7 35  1  0
 12 36  1  0
 13 37  1  0
 14 38  1  0
 17 39  1  0
 19 40  1  0
 20 41  1  0
 24 42  1  0
 26 43  1  0
 28 44  1  0
M  END
