
     RDKit          3D

 44 50  0  0  0  0  0  0  0  0999 V2000
   -3.7393   -3.3697   -1.0590 C   0  0  0  0  0  0  0  0  0  0  0  0
   -4.6941   -2.3652   -0.4847 C   0  0  0  0  0  0  0  0  0  0  0  0
   -4.0185   -1.2714   -0.0947 C   0  0  0  0  0  0  0  0  0  0  0  0
   -4.5065   -0.0335    0.5185 C   0  0  0  0  0  0  0  0  0  0  0  0
   -5.8508    0.2103    0.8105 C   0  0  0  0  0  0  0  0  0  0  0  0
   -6.2191    1.4181    1.3939 C   0  0  0  0  0  0  0  0  0  0  0  0
   -5.2286    2.3445    1.6667 C   0  0  0  0  0  0  0  0  0  0  0  0
   -3.9194    2.1482    1.4005 N   0  0  0  0  0  0  0  0  0  0  0  0
   -3.5602    0.9647    0.8292 C   0  0  0  0  0  0  0  0  0  0  0  0
   -2.1043    0.7828    0.5492 C   0  0  0  0  0  0  0  0  0  0  0  0
   -1.1709    1.7891    0.8655 C   0  0  0  0  0  0  0  0  0  0  0  0
    0.2028    1.6315    0.6071 C   0  0  0  0  0  0  0  0  0  0  0  0
    1.1469    2.6121    0.9098 C   0  0  0  0  0  0  0  0  0  0  0  0
    2.4749    2.4974    0.6761 N   0  0  0  0  0  0  0  0  0  0  0  0
    2.9130    1.3475    0.1097 C   0  0  0  0  0  0  0  0  0  0  0  0
    2.0466    0.3118   -0.2297 C   0  0  0  0  0  0  0  0  0  0  0  0
    0.6729    0.4474    0.0196 C   0  0  0  0  0  0  0  0  0  0  0  0
   -0.2443   -0.5663   -0.3018 C   0  0  0  0  0  0  0  0  0  0  0  0
   -1.6165   -0.4114   -0.0450 C   0  0  0  0  0  0  0  0  0  0  0  0
   -2.5988   -1.4583   -0.3721 C   0  0  0  0  0  0  0  0  0  0  0  0
   -2.4194   -2.6676   -0.9304 C   0  0  0  0  0  0  0  0  0  0  0  0
    4.3620    1.2669   -0.1221 C   0  0  0  0  0  0  0  0  0  0  0  0
    5.2570    2.7133   -0.4638 S   0  0  0  0  0  0  0  0  0  0  0  0
    6.7448    1.8805   -0.6095 C   0  0  0  0  0  0  0  0  0  0  0  0
    6.5818    0.5362   -0.4099 C   0  0  0  0  0  0  0  0  0  0  0  0
    7.6174   -0.3466   -0.4710 N   0  0  0  0  0  0  0  0  0  0  0  0
    7.1858   -1.6130   -0.2277 C   0  0  0  0  0  0  0  0  0  0  0  0
    5.8610   -1.9732    0.0428 C   0  0  0  0  0  0  0  0  0  0  0  0
    4.8084   -1.1119    0.1012 N   0  0  0  0  0  0  0  0  0  0  0  0
    5.2096    0.1749   -0.1327 C   0  0  0  0  0  0  0  0  0  0  0  0
   -3.9727   -3.5820   -2.1064 H   0  0  0  0  0  0  0  0  0  0  0  0
   -3.7497   -4.2989   -0.4819 H   0  0  0  0  0  0  0  0  0  0  0  0
   -5.7577   -2.5288   -0.4109 H   0  0  0  0  0  0  0  0  0  0  0  0
   -6.6158   -0.5274    0.5899 H   0  0  0  0  0  0  0  0  0  0  0  0
   -7.2556    1.6315    1.6301 H   0  0  0  0  0  0  0  0  0  0  0  0
   -5.4686    3.3014    2.1218 H   0  0  0  0  0  0  0  0  0  0  0  0
   -1.5223    2.7140    1.3222 H   0  0  0  0  0  0  0  0  0  0  0  0
    0.8521    3.5539    1.3659 H   0  0  0  0  0  0  0  0  0  0  0  0
    2.4291   -0.5942   -0.6891 H   0  0  0  0  0  0  0  0  0  0  0  0
    0.1221   -1.4837   -0.7557 H   0  0  0  0  0  0  0  0  0  0  0  0
   -1.4847   -3.1009   -1.2498 H   0  0  0  0  0  0  0  0  0  0  0  0
    7.6589    2.4116   -0.8309 H   0  0  0  0  0  0  0  0  0  0  0  0
    7.9626   -2.3721   -0.2545 H   0  0  0  0  0  0  0  0  0  0  0  0
    5.6083   -3.0137    0.2276 H   0  0  0  0  0  0  0  0  0  0  0  0
  1  2  1  0
  2  3  2  0
  3  4  1  0
  4  5  2  0
  5  6  1  0
  6  7  2  0
  7  8  1  0
  8  9  2  0
  9 10  1  0
 10 11  2  0
 11 12  1  0
 12 13  2  0
 13 14  1  0
 14 15  2  0
 15 16  1  0
 16 17  2  0
 17 18  1  0
 18 19  2  0
 19 20  1  0
 20 21  2  0
 15 22  1  0
 22 23  1  0
 23 24  1  0
 24 25  2  0
 25 26  1  0
 26 27  2  0
 27 28  1  0
 28 29  2  0
 29 30  1  0
 21  1  1  0
 30 22  2  0
 20  3  1  0
 30 25  1  0
  9  4  1  0
 19 10  1  0
 17 12  1  0
  1 31  1  0
  1 32  1  0
  2 33  1  0
  5 34  1  0
  6 35  1  0
  7 36  1  0
 11 37  1  0
 13 38  1  0
 16 39  1  0
 18 40  1  0
 21 41  1  0
 24 42  1  0
 27 43  1  0
 28 44  1  0
M  END
