
     RDKit          3D

 43 49  0  0  0  0  0  0  0  0999 V2000
   -2.9197   -3.2319   -0.9684 C   0  0  0  0  0  0  0  0  0  0  0  0
   -4.0927   -2.3651   -0.6322 C   0  0  0  0  0  0  0  0  0  0  0  0
   -3.6604   -1.1587   -0.2283 C   0  0  0  0  0  0  0  0  0  0  0  0
   -4.4382    0.0026    0.1975 C   0  0  0  0  0  0  0  0  0  0  0  0
   -5.8351    0.0282    0.2496 C   0  0  0  0  0  0  0  0  0  0  0  0
   -6.4879    1.1821    0.6690 C   0  0  0  0  0  0  0  0  0  0  0  0
   -5.7196    2.2750    1.0232 C   0  0  0  0  0  0  0  0  0  0  0  0
   -4.3700    2.2890    0.9862 N   0  0  0  0  0  0  0  0  0  0  0  0
   -3.7310    1.1568    0.5748 C   0  0  0  0  0  0  0  0  0  0  0  0
   -2.2380    1.2154    0.5487 C   0  0  0  0  0  0  0  0  0  0  0  0
   -1.5766    2.3913    0.9347 C   0  0  0  0  0  0  0  0  0  0  0  0
   -0.1898    2.4744    0.9202 C   0  0  0  0  0  0  0  0  0  0  0  0
    0.5823    1.3810    0.5180 C   0  0  0  0  0  0  0  0  0  0  0  0
    1.9882    1.4835    0.5093 C   0  0  0  0  0  0  0  0  0  0  0  0
    2.8165    0.4236    0.1169 C   0  0  0  0  0  0  0  0  0  0  0  0
    2.1202   -0.7143   -0.2545 C   0  0  0  0  0  0  0  0  0  0  0  0
    0.7651   -0.8515   -0.2594 N   0  0  0  0  0  0  0  0  0  0  0  0
   -0.0267    0.1752    0.1201 C   0  0  0  0  0  0  0  0  0  0  0  0
   -1.4438    0.0985    0.1378 C   0  0  0  0  0  0  0  0  0  0  0  0
   -2.1990   -1.1213   -0.2606 C   0  0  0  0  0  0  0  0  0  0  0  0
   -1.7653   -2.3209   -0.6890 C   0  0  0  0  0  0  0  0  0  0  0  0
    4.2935    0.5345    0.1085 C   0  0  0  0  0  0  0  0  0  0  0  0
    5.0906    2.0106    0.5942 S   0  0  0  0  0  0  0  0  0  0  0  0
    6.6653    1.3995    0.3324 C   0  0  0  0  0  0  0  0  0  0  0  0
    6.5439    0.1299   -0.1031 C   0  0  0  0  0  0  0  0  0  0  0  0
    7.5159   -0.8297   -0.4662 C   0  0  0  0  0  0  0  0  0  0  0  0
    6.9458   -2.0391   -0.8666 C   0  0  0  0  0  0  0  0  0  0  0  0
    5.1966   -2.1152   -0.8373 S   0  0  0  0  0  0  0  0  0  0  0  0
    5.2538   -0.3947   -0.2436 C   0  0  0  0  0  0  0  0  0  0  0  0
   -2.8872   -4.1189   -0.3291 H   0  0  0  0  0  0  0  0  0  0  0  0
   -2.9395   -3.5342   -2.0194 H   0  0  0  0  0  0  0  0  0  0  0  0
   -5.1165   -2.6937   -0.7142 H   0  0  0  0  0  0  0  0  0  0  0  0
   -6.4229   -0.8396   -0.0323 H   0  0  0  0  0  0  0  0  0  0  0  0
   -7.5700    1.2262    0.7177 H   0  0  0  0  0  0  0  0  0  0  0  0
   -6.1822    3.1994    1.3573 H   0  0  0  0  0  0  0  0  0  0  0  0
   -2.1475    3.2625    1.2537 H   0  0  0  0  0  0  0  0  0  0  0  0
    0.2794    3.4068    1.2279 H   0  0  0  0  0  0  0  0  0  0  0  0
    2.4220    2.4304    0.8229 H   0  0  0  0  0  0  0  0  0  0  0  0
    2.6101   -1.6203   -0.5828 H   0  0  0  0  0  0  0  0  0  0  0  0
   -0.7394   -2.6251   -0.8260 H   0  0  0  0  0  0  0  0  0  0  0  0
    7.5489    1.9960    0.5107 H   0  0  0  0  0  0  0  0  0  0  0  0
    8.5875   -0.6718   -0.4457 H   0  0  0  0  0  0  0  0  0  0  0  0
    7.4734   -2.9262   -1.1904 H   0  0  0  0  0  0  0  0  0  0  0  0
  1  2  1  0
  2  3  2  0
  3  4  1  0
  4  5  2  0
  5  6  1  0
  6  7  2  0
  7  8  1  0
  8  9  2  0
  9 10  1  0
 10 11  2  0
 11 12  1  0
 12 13  2  0
 13 14  1  0
 14 15  2  0
 15 16  1  0
 16 17  2  0
 17 18  1  0
 18 19  2  0
 19 20  1  0
 20 21  2  0
 15 22  1  0
 22 23  1  0
 23 24  1  0
 24 25  2  0
 25 26  1  0
 26 27  2  0
 27 28  1  0
 28 29  1  0
 21  1  1  0
 29 22  2  0
 20  3  1  0
 29 25  1  0
  9  4  1  0
 19 10  1  0
 18 13  1  0
  1 30  1  0
  1 31  1  0
  2 32  1  0
  5 33  1  0
  6 34  1  0
  7 35  1  0
 11 36  1  0
 12 37  1  0
 14 38  1  0
 16 39  1  0
 21 40  1  0
 24 41  1  0
 26 42  1  0
 27 43  1  0
M  END
