
     RDKit          3D

 48 55  0  0  0  0  0  0  0  0999 V2000
    3.4249   -0.4453   -3.0858 C   0  0  0  0  0  0  0  0  0  0  0  0
    4.5291   -0.3999   -2.0761 C   0  0  0  0  0  0  0  0  0  0  0  0
    4.0083   -0.2017   -0.8539 C   0  0  0  0  0  0  0  0  0  0  0  0
    4.6999    0.1120    0.3959 C   0  0  0  0  0  0  0  0  0  0  0  0
    6.0826    0.0275    0.5726 C   0  0  0  0  0  0  0  0  0  0  0  0
    6.6415    0.3995    1.7907 C   0  0  0  0  0  0  0  0  0  0  0  0
    5.7969    0.8479    2.7905 C   0  0  0  0  0  0  0  0  0  0  0  0
    4.4557    0.9393    2.6583 N   0  0  0  0  0  0  0  0  0  0  0  0
    3.9107    0.5687    1.4673 C   0  0  0  0  0  0  0  0  0  0  0  0
    2.4282    0.6190    1.3759 C   0  0  0  0  0  0  0  0  0  0  0  0
    1.6604    1.1423    2.4086 C   0  0  0  0  0  0  0  0  0  0  0  0
    0.3061    1.1834    2.4388 N   0  0  0  0  0  0  0  0  0  0  0  0
   -0.3787    0.5861    1.4630 C   0  0  0  0  0  0  0  0  0  0  0  0
   -1.7903    0.6113    1.6204 C   0  0  0  0  0  0  0  0  0  0  0  0
   -2.7315   -0.0133    0.7734 C   0  0  0  0  0  0  0  0  0  0  0  0
   -4.1605    0.0263    0.9573 C   0  0  0  0  0  0  0  0  0  0  0  0
   -4.9451   -0.5507    2.3900 S   0  0  0  0  0  0  0  0  0  0  0  0
   -6.5382   -0.1602    1.8056 C   0  0  0  0  0  0  0  0  0  0  0  0
   -6.3989    0.3897    0.5823 C   0  0  0  0  0  0  0  0  0  0  0  0
   -7.1603    0.9440   -0.4758 C   0  0  0  0  0  0  0  0  0  0  0  0
   -6.2484    1.3383   -1.4793 C   0  0  0  0  0  0  0  0  0  0  0  0
   -4.9317    1.0641   -1.1140 N   0  0  0  0  0  0  0  0  0  0  0  0
   -5.1075    0.4979    0.1168 C   0  0  0  0  0  0  0  0  0  0  0  0
   -2.0853   -0.7307   -0.2293 C   0  0  0  0  0  0  0  0  0  0  0  0
   -2.6656   -1.5839   -1.1376 C   0  0  0  0  0  0  0  0  0  0  0  0
   -1.6474   -2.1774   -1.8433 N   0  0  0  0  0  0  0  0  0  0  0  0
   -0.4310   -1.7198   -1.3861 C   0  0  0  0  0  0  0  0  0  0  0  0
   -0.6659   -0.7580   -0.4306 C   0  0  0  0  0  0  0  0  0  0  0  0
    0.2936   -0.0406    0.3580 C   0  0  0  0  0  0  0  0  0  0  0  0
    1.7179    0.1097    0.2610 C   0  0  0  0  0  0  0  0  0  0  0  0
    2.5482   -0.1628   -0.9357 C   0  0  0  0  0  0  0  0  0  0  0  0
    2.2107   -0.2184   -2.2360 C   0  0  0  0  0  0  0  0  0  0  0  0
    3.5389    0.3532   -3.8250 H   0  0  0  0  0  0  0  0  0  0  0  0
    3.3826   -1.4142   -3.5914 H   0  0  0  0  0  0  0  0  0  0  0  0
    5.5756   -0.4249   -2.3372 H   0  0  0  0  0  0  0  0  0  0  0  0
    6.7303   -0.3210   -0.2258 H   0  0  0  0  0  0  0  0  0  0  0  0
    7.7120    0.3448    1.9547 H   0  0  0  0  0  0  0  0  0  0  0  0
    6.1876    1.1528    3.7575 H   0  0  0  0  0  0  0  0  0  0  0  0
    2.1309    1.5761    3.2893 H   0  0  0  0  0  0  0  0  0  0  0  0
   -2.1720    1.1564    2.4868 H   0  0  0  0  0  0  0  0  0  0  0  0
   -7.4210   -0.3554    2.3963 H   0  0  0  0  0  0  0  0  0  0  0  0
   -8.2347    1.0592   -0.5273 H   0  0  0  0  0  0  0  0  0  0  0  0
   -6.4384    1.8042   -2.4377 H   0  0  0  0  0  0  0  0  0  0  0  0
   -4.0570    1.2240   -1.6002 H   0  0  0  0  0  0  0  0  0  0  0  0
   -3.6947   -1.8695   -1.3142 H   0  0  0  0  0  0  0  0  0  0  0  0
   -1.7701   -2.8967   -2.5450 H   0  0  0  0  0  0  0  0  0  0  0  0
    0.4767   -2.1613   -1.7717 H   0  0  0  0  0  0  0  0  0  0  0  0
    1.2248   -0.0850   -2.6522 H   0  0  0  0  0  0  0  0  0  0  0  0
  1  2  1  0
  2  3  2  0
  3  4  1  0
  4  5  2  0
  5  6  1  0
  6  7  2  0
  7  8  1  0
  8  9  2  0
  9 10  1  0
 10 11  2  0
 11 12  1  0
 12 13  2  0
 13 14  1  0
 14 15  2  0
 15 16  1  0
 16 17  1  0
 17 18  1  0
 18 19  2  0
 19 20  1  0
 20 21  2  0
 21 22  1  0
 22 23  1  0
 15 24  1  0
 24 25  2  0
 25 26  1  0
 26 27  1  0
 27 28  2  0
 28 29  1  0
 29 30  2  0
 30 31  1  0
 31 32  2  0
 32  1  1  0
 31  3  1  0
  9  4  1  0
 30 10  1  0
 29 13  1  0
 23 16  2  0
 28 24  1  0
 23 19  1  0
  1 33  1  0
  1 34  1  0
  2 35  1  0
  5 36  1  0
  6 37  1  0
  7 38  1  0
 11 39  1  0
 14 40  1  0
 18 41  1  0
 20 42  1  0
 21 43  1  0
 22 44  1  0
 25 45  1  0
 26 46  1  0
 27 47  1  0
 32 48  1  0
M  END
