
     RDKit          3D

 42 48  0  0  0  0  0  0  0  0999 V2000
    0.9577    1.6395    3.3630 Si  0  0  0  0  0  4  0  0  0  0  0  0
    1.9848    0.6387    2.1945 C   0  0  0  0  0  0  0  0  0  0  0  0
    1.2525    0.1398    1.1753 C   0  0  0  0  0  0  0  0  0  0  0  0
    1.8085   -0.6909    0.1061 C   0  0  0  0  0  0  0  0  0  0  0  0
    0.9690   -1.1410   -0.8488 C   0  0  0  0  0  0  0  0  0  0  0  0
   -0.4810   -0.8438   -0.8630 C   0  0  0  0  0  0  0  0  0  0  0  0
   -1.2296   -1.3832   -1.9064 C   0  0  0  0  0  0  0  0  0  0  0  0
   -2.5963   -1.1440   -1.9942 C   0  0  0  0  0  0  0  0  0  0  0  0
   -3.2502   -0.3486   -1.0294 C   0  0  0  0  0  0  0  0  0  0  0  0
   -4.6018    0.0256   -0.9161 C   0  0  0  0  0  0  0  0  0  0  0  0
   -6.1917   -0.2756   -1.8796 Si  0  0  0  0  0  4  0  0  0  0  0  0
   -7.1012    0.8017   -0.5840 C   0  0  0  0  0  0  0  0  0  0  0  0
   -6.2612    1.2607    0.3683 C   0  0  0  0  0  0  0  0  0  0  0  0
   -4.9253    0.8200    0.1525 C   0  0  0  0  0  0  0  0  0  0  0  0
   -3.5607    1.1436    1.0745 S   0  0  0  0  0  0  0  0  0  0  0  0
   -2.4972    0.2052    0.0370 C   0  0  0  0  0  0  0  0  0  0  0  0
   -1.0925   -0.0367    0.1390 C   0  0  0  0  0  0  0  0  0  0  0  0
   -0.2016    0.4879    1.2183 C   0  0  0  0  0  0  0  0  0  0  0  0
   -0.5168    1.2576    2.2828 C   0  0  0  0  0  0  0  0  0  0  0  0
    3.1892   -1.0350   -0.0316 C   0  0  0  0  0  0  0  0  0  0  0  0
    3.7608   -2.6773    0.1988 S   0  0  0  0  0  0  0  0  0  0  0  0
    5.4234   -2.2702   -0.0972 C   0  0  0  0  0  0  0  0  0  0  0  0
    5.4864   -0.9475   -0.3444 C   0  0  0  0  0  0  0  0  0  0  0  0
    6.6039   -0.2155   -0.6201 N   0  0  0  0  0  0  0  0  0  0  0  0
    6.0605    1.0589   -0.7764 C   0  0  0  0  0  0  0  0  0  0  0  0
    4.6605    1.0531   -0.5945 C   0  0  0  0  0  0  0  0  0  0  0  0
    4.2822   -0.2841   -0.3070 C   0  0  0  0  0  0  0  0  0  0  0  0
    1.3096    3.0802    3.3499 H   0  0  0  0  0  0  0  0  0  0  0  0
    0.8487    1.0247    4.7081 H   0  0  0  0  0  0  0  0  0  0  0  0
    3.0418    0.5052    2.3639 H   0  0  0  0  0  0  0  0  0  0  0  0
    1.3472   -1.7450   -1.6701 H   0  0  0  0  0  0  0  0  0  0  0  0
   -0.7594   -1.9997   -2.6695 H   0  0  0  0  0  0  0  0  0  0  0  0
   -3.1556   -1.5780   -2.8193 H   0  0  0  0  0  0  0  0  0  0  0  0
   -6.2224    0.3642   -3.2183 H   0  0  0  0  0  0  0  0  0  0  0  0
   -6.6733   -1.6787   -1.8364 H   0  0  0  0  0  0  0  0  0  0  0  0
   -8.1614    0.9806   -0.6651 H   0  0  0  0  0  0  0  0  0  0  0  0
   -6.5540    1.8883    1.2006 H   0  0  0  0  0  0  0  0  0  0  0  0
   -1.4636    1.6603    2.5858 H   0  0  0  0  0  0  0  0  0  0  0  0
    6.2144   -3.0056   -0.0670 H   0  0  0  0  0  0  0  0  0  0  0  0
    7.5615   -0.5378   -0.6867 H   0  0  0  0  0  0  0  0  0  0  0  0
    6.7206    1.8847   -1.0092 H   0  0  0  0  0  0  0  0  0  0  0  0
    4.0135    1.9177   -0.6648 H   0  0  0  0  0  0  0  0  0  0  0  0
  1  2  1  0
  2  3  2  0
  3  4  1  0
  4  5  2  0
  5  6  1  0
  6  7  2  0
  7  8  1  0
  8  9  2  0
  9 10  1  0
 10 11  1  0
 11 12  1  0
 12 13  2  0
 13 14  1  0
 14 15  1  0
 15 16  1  0
 16 17  2  0
 17 18  1  0
 18 19  2  0
  4 20  1  0
 20 21  1  0
 21 22  1  0
 22 23  2  0
 23 24  1  0
 24 25  1  0
 25 26  2  0
 26 27  1  0
 19  1  1  0
 27 20  2  0
 18  3  1  0
 27 23  1  0
 17  6  1  0
 16  9  1  0
 14 10  2  0
  1 28  1  0
  1 29  1  0
  2 30  1  0
  5 31  1  0
  7 32  1  0
  8 33  1  0
 11 34  1  0
 11 35  1  0
 12 36  1  0
 13 37  1  0
 19 38  1  0
 22 39  1  0
 24 40  1  0
 25 41  1  0
 26 42  1  0
M  END
