
     RDKit          3D

 43 49  0  0  0  0  0  0  0  0999 V2000
   -2.9438    3.1342   -1.6039 C   0  0  0  0  0  0  0  0  0  0  0  0
   -4.1197    2.4373   -1.0063 C   0  0  0  0  0  0  0  0  0  0  0  0
   -3.7165    1.3090   -0.3972 C   0  0  0  0  0  0  0  0  0  0  0  0
   -4.5333    0.3220    0.3155 C   0  0  0  0  0  0  0  0  0  0  0  0
   -5.9214    0.4670    0.4455 C   0  0  0  0  0  0  0  0  0  0  0  0
   -6.6300   -0.5002    1.1296 C   0  0  0  0  0  0  0  0  0  0  0  0
   -6.0576   -1.5815    1.6822 N   0  0  0  0  0  0  0  0  0  0  0  0
   -4.7119   -1.6970    1.5409 C   0  0  0  0  0  0  0  0  0  0  0  0
   -3.8738   -0.7945    0.8750 C   0  0  0  0  0  0  0  0  0  0  0  0
   -2.3852   -0.9763    0.7519 C   0  0  0  0  0  0  0  0  0  0  0  0
   -1.7476   -2.0915    1.3121 C   0  0  0  0  0  0  0  0  0  0  0  0
   -0.3702   -2.2829    1.2144 C   0  0  0  0  0  0  0  0  0  0  0  0
    0.4411   -1.3506    0.5415 C   0  0  0  0  0  0  0  0  0  0  0  0
    1.8639   -1.3826    0.3446 C   0  0  0  0  0  0  0  0  0  0  0  0
    2.3418   -0.3086   -0.3666 C   0  0  0  0  0  0  0  0  0  0  0  0
    1.0716    0.7361   -0.7892 S   0  0  0  0  0  0  0  0  0  0  0  0
   -0.1618   -0.2216   -0.0347 C   0  0  0  0  0  0  0  0  0  0  0  0
   -1.5752   -0.0149    0.0583 C   0  0  0  0  0  0  0  0  0  0  0  0
   -2.2652    1.1594   -0.5330 C   0  0  0  0  0  0  0  0  0  0  0  0
   -1.8183    2.2190   -1.2338 C   0  0  0  0  0  0  0  0  0  0  0  0
    3.7142   -0.0454   -0.7144 C   0  0  0  0  0  0  0  0  0  0  0  0
    4.1843    0.5312   -2.2838 S   0  0  0  0  0  0  0  0  0  0  0  0
    5.8662    0.5390   -1.8942 C   0  0  0  0  0  0  0  0  0  0  0  0
    6.0575    0.1154   -0.6090 C   0  0  0  0  0  0  0  0  0  0  0  0
    7.2094   -0.0963    0.3128 C   0  0  0  0  0  0  0  0  0  0  0  0
    6.4763   -0.5737    1.5688 C   0  0  0  0  0  0  0  0  0  0  0  0
    5.1391   -0.6206    1.3709 C   0  0  0  0  0  0  0  0  0  0  0  0
    4.8426   -0.2094    0.0436 C   0  0  0  0  0  0  0  0  0  0  0  0
   -3.0429    3.2198   -2.6899 H   0  0  0  0  0  0  0  0  0  0  0  0
   -2.8061    4.1271   -1.1661 H   0  0  0  0  0  0  0  0  0  0  0  0
   -5.1263    2.8171   -1.0770 H   0  0  0  0  0  0  0  0  0  0  0  0
   -6.4536    1.3124    0.0268 H   0  0  0  0  0  0  0  0  0  0  0  0
   -7.7064   -0.4263    1.2533 H   0  0  0  0  0  0  0  0  0  0  0  0
   -4.3333   -2.5958    2.0154 H   0  0  0  0  0  0  0  0  0  0  0  0
   -2.2972   -2.8591    1.8484 H   0  0  0  0  0  0  0  0  0  0  0  0
    0.0786   -3.1655    1.6655 H   0  0  0  0  0  0  0  0  0  0  0  0
    2.4987   -2.1810    0.7095 H   0  0  0  0  0  0  0  0  0  0  0  0
   -0.8105    2.4496   -1.5292 H   0  0  0  0  0  0  0  0  0  0  0  0
    6.5978    0.8527   -2.6255 H   0  0  0  0  0  0  0  0  0  0  0  0
    7.7507    0.8335    0.5081 H   0  0  0  0  0  0  0  0  0  0  0  0
    7.8909   -0.8673   -0.0569 H   0  0  0  0  0  0  0  0  0  0  0  0
    6.9786   -0.8274    2.4905 H   0  0  0  0  0  0  0  0  0  0  0  0
    4.4043   -0.9117    2.1081 H   0  0  0  0  0  0  0  0  0  0  0  0
  1  2  1  0
  2  3  2  0
  3  4  1  0
  4  5  2  0
  5  6  1  0
  6  7  2  0
  7  8  1  0
  8  9  2  0
  9 10  1  0
 10 11  2  0
 11 12  1  0
 12 13  2  0
 13 14  1  0
 14 15  2  0
 15 16  1  0
 16 17  1  0
 17 18  2  0
 18 19  1  0
 19 20  2  0
 15 21  1  0
 21 22  1  0
 22 23  1  0
 23 24  2  0
 24 25  1  0
 25 26  1  0
 26 27  2  0
 27 28  1  0
 20  1  1  0
 28 21  2  0
 19  3  1  0
 28 24  1  0
  9  4  1  0
 18 10  1  0
 17 13  1  0
  1 29  1  0
  1 30  1  0
  2 31  1  0
  5 32  1  0
  6 33  1  0
  8 34  1  0
 11 35  1  0
 12 36  1  0
 14 37  1  0
 20 38  1  0
 23 39  1  0
 25 40  1  0
 25 41  1  0
 26 42  1  0
 27 43  1  0
M  END
