
     RDKit          3D

 38 44  0  0  0  0  0  0  0  0999 V2000
   -2.3601   -3.3336    1.0439 C   0  0  0  0  0  0  0  0  0  0  0  0
   -3.4920   -2.4355    0.6719 C   0  0  0  0  0  0  0  0  0  0  0  0
   -3.0094   -1.2468    0.2815 C   0  0  0  0  0  0  0  0  0  0  0  0
   -3.7159   -0.0922   -0.1581 C   0  0  0  0  0  0  0  0  0  0  0  0
   -5.1239    0.0674   -0.2863 C   0  0  0  0  0  0  0  0  0  0  0  0
   -5.4474    1.3241   -0.7417 C   0  0  0  0  0  0  0  0  0  0  0  0
   -4.0601    2.2813   -1.0046 S   0  0  0  0  0  0  0  0  0  0  0  0
   -2.9939    1.0398   -0.5162 C   0  0  0  0  0  0  0  0  0  0  0  0
   -1.5196    1.1222   -0.4692 C   0  0  0  0  0  0  0  0  0  0  0  0
   -0.7107    2.2145   -0.8093 C   0  0  0  0  0  0  0  0  0  0  0  0
   -1.0561    3.4702   -1.2657 C   0  0  0  0  0  0  0  0  0  0  0  0
    0.0564    4.2469   -1.4800 O   0  0  0  0  0  0  0  0  0  0  0  0
    1.1478    3.4907   -1.1599 C   0  0  0  0  0  0  0  0  0  0  0  0
    0.6911    2.2751   -0.7586 C   0  0  0  0  0  0  0  0  0  0  0  0
    1.4229    1.1368   -0.3236 C   0  0  0  0  0  0  0  0  0  0  0  0
    2.8256    1.0808   -0.2323 C   0  0  0  0  0  0  0  0  0  0  0  0
    3.2270   -0.1605    0.2214 C   0  0  0  0  0  0  0  0  0  0  0  0
    1.8691   -1.1747    0.5064 S   0  0  0  0  0  0  0  0  0  0  0  0
    0.6908    0.0093    0.0327 C   0  0  0  0  0  0  0  0  0  0  0  0
   -0.7507   -0.0302   -0.0273 C   0  0  0  0  0  0  0  0  0  0  0  0
   -1.5385   -1.2426    0.3557 C   0  0  0  0  0  0  0  0  0  0  0  0
   -1.1661   -2.4586    0.7998 C   0  0  0  0  0  0  0  0  0  0  0  0
    4.5707   -0.6425    0.4580 C   0  0  0  0  0  0  0  0  0  0  0  0
    4.8272   -1.8601    0.8961 N   0  0  0  0  0  0  0  0  0  0  0  0
    6.1885   -2.0447    1.0295 C   0  0  0  0  0  0  0  0  0  0  0  0
    6.9695   -0.9632    0.6916 C   0  0  0  0  0  0  0  0  0  0  0  0
    5.9696    0.3322    0.1888 S   0  0  0  0  0  0  0  0  0  0  0  0
   -2.3335   -4.2227    0.4073 H   0  0  0  0  0  0  0  0  0  0  0  0
   -2.4204   -3.6335    2.0942 H   0  0  0  0  0  0  0  0  0  0  0  0
   -4.5310   -2.7213    0.7183 H   0  0  0  0  0  0  0  0  0  0  0  0
   -5.8648   -0.6889   -0.0603 H   0  0  0  0  0  0  0  0  0  0  0  0
   -6.4327    1.7263   -0.9328 H   0  0  0  0  0  0  0  0  0  0  0  0
   -1.9787    3.9822   -1.4920 H   0  0  0  0  0  0  0  0  0  0  0  0
    2.1088    3.9694   -1.2779 H   0  0  0  0  0  0  0  0  0  0  0  0
    3.5061    1.8859   -0.4788 H   0  0  0  0  0  0  0  0  0  0  0  0
   -0.1723   -2.8285    0.9803 H   0  0  0  0  0  0  0  0  0  0  0  0
    6.5607   -2.9993    1.3816 H   0  0  0  0  0  0  0  0  0  0  0  0
    8.0460   -0.8757    0.7155 H   0  0  0  0  0  0  0  0  0  0  0  0
  1  2  1  0
  2  3  2  0
  3  4  1  0
  4  5  1  0
  5  6  2  0
  6  7  1  0
  7  8  1  0
  8  9  1  0
  9 10  1  0
 10 11  2  0
 11 12  1  0
 12 13  1  0
 13 14  2  0
 14 15  1  0
 15 16  1  0
 16 17  2  0
 17 18  1  0
 18 19  1  0
 19 20  1  0
 20 21  1  0
 21 22  2  0
 17 23  1  0
 23 24  2  0
 24 25  1  0
 25 26  2  0
 26 27  1  0
 22  1  1  0
 27 23  1  0
 21  3  1  0
  8  4  2  0
 20  9  2  0
 14 10  1  0
 19 15  2  0
  1 28  1  0
  1 29  1  0
  2 30  1  0
  5 31  1  0
  6 32  1  0
 11 33  1  0
 13 34  1  0
 16 35  1  0
 22 36  1  0
 25 37  1  0
 26 38  1  0
M  END
