
     RDKit          3D

 45 51  0  0  0  0  0  0  0  0999 V2000
    4.5645    3.3025    0.8633 C   0  0  0  0  0  0  0  0  0  0  0  0
    5.2840    2.0068    0.6329 C   0  0  0  0  0  0  0  0  0  0  0  0
    4.3902    1.0392    0.3859 C   0  0  0  0  0  0  0  0  0  0  0  0
    4.5708   -0.3458    0.1088 C   0  0  0  0  0  0  0  0  0  0  0  0
    5.7837   -1.0806    0.0205 C   0  0  0  0  0  0  0  0  0  0  0  0
    5.5485   -2.4074   -0.2664 C   0  0  0  0  0  0  0  0  0  0  0  0
    3.8789   -2.7496   -0.4249 S   0  0  0  0  0  0  0  0  0  0  0  0
    3.4425   -1.1263   -0.1120 C   0  0  0  0  0  0  0  0  0  0  0  0
    2.0450   -0.6200   -0.0805 C   0  0  0  0  0  0  0  0  0  0  0  0
    0.9214   -1.4341   -0.3082 C   0  0  0  0  0  0  0  0  0  0  0  0
   -0.4178   -0.9468   -0.2777 C   0  0  0  0  0  0  0  0  0  0  0  0
   -0.5726    0.4240   -0.0016 C   0  0  0  0  0  0  0  0  0  0  0  0
   -1.8521    0.9796    0.0466 C   0  0  0  0  0  0  0  0  0  0  0  0
   -3.0290    0.2353   -0.1695 C   0  0  0  0  0  0  0  0  0  0  0  0
   -4.2949    1.0056   -0.0758 C   0  0  0  0  0  0  0  0  0  0  0  0
   -4.5853    2.3387    0.1858 C   0  0  0  0  0  0  0  0  0  0  0  0
   -5.9935    2.4857    0.1426 C   0  0  0  0  0  0  0  0  0  0  0  0
   -6.4892    1.2399   -0.1420 C   0  0  0  0  0  0  0  0  0  0  0  0
   -5.4762    0.3505   -0.2736 O   0  0  0  0  0  0  0  0  0  0  0  0
   -2.9025   -1.1647   -0.4534 C   0  0  0  0  0  0  0  0  0  0  0  0
   -4.0012   -2.0397   -0.6927 C   0  0  0  0  0  0  0  0  0  0  0  0
   -3.8599   -3.4006   -0.9678 C   0  0  0  0  0  0  0  0  0  0  0  0
   -2.6007   -3.9532   -1.0162 C   0  0  0  0  0  0  0  0  0  0  0  0
   -1.4939   -3.1392   -0.7891 C   0  0  0  0  0  0  0  0  0  0  0  0
   -1.5935   -1.7495   -0.5059 C   0  0  0  0  0  0  0  0  0  0  0  0
    0.5418    1.2528    0.2286 C   0  0  0  0  0  0  0  0  0  0  0  0
    1.8443    0.7514    0.1930 C   0  0  0  0  0  0  0  0  0  0  0  0
    3.0362    1.5951    0.4301 C   0  0  0  0  0  0  0  0  0  0  0  0
    3.1228    2.9082    0.7063 C   0  0  0  0  0  0  0  0  0  0  0  0
    4.7593    3.6885    1.8682 H   0  0  0  0  0  0  0  0  0  0  0  0
    4.8509    4.0505    0.1183 H   0  0  0  0  0  0  0  0  0  0  0  0
    6.3561    1.8925    0.6654 H   0  0  0  0  0  0  0  0  0  0  0  0
    6.7762   -0.6706    0.1575 H   0  0  0  0  0  0  0  0  0  0  0  0
    6.2768   -3.1967   -0.3915 H   0  0  0  0  0  0  0  0  0  0  0  0
    1.0984   -2.4834   -0.5163 H   0  0  0  0  0  0  0  0  0  0  0  0
   -1.9281    2.0434    0.2633 H   0  0  0  0  0  0  0  0  0  0  0  0
   -3.8730    3.1256    0.3864 H   0  0  0  0  0  0  0  0  0  0  0  0
   -6.5708    3.3856    0.2992 H   0  0  0  0  0  0  0  0  0  0  0  0
   -7.4843    0.8399   -0.2771 H   0  0  0  0  0  0  0  0  0  0  0  0
   -5.0244   -1.6843   -0.6728 H   0  0  0  0  0  0  0  0  0  0  0  0
   -4.7393   -4.0145   -1.1414 H   0  0  0  0  0  0  0  0  0  0  0  0
   -2.4697   -5.0103   -1.2287 H   0  0  0  0  0  0  0  0  0  0  0  0
   -0.5292   -3.6354   -0.8414 H   0  0  0  0  0  0  0  0  0  0  0  0
    0.3843    2.3080    0.4391 H   0  0  0  0  0  0  0  0  0  0  0  0
    2.3042    3.6031    0.8072 H   0  0  0  0  0  0  0  0  0  0  0  0
  1  2  1  0
  2  3  2  0
  3  4  1  0
  4  5  1  0
  5  6  2  0
  6  7  1  0
  7  8  1  0
  8  9  1  0
  9 10  2  0
 10 11  1  0
 11 12  2  0
 12 13  1  0
 13 14  2  0
 14 15  1  0
 15 16  2  0
 16 17  1  0
 17 18  2  0
 18 19  1  0
 14 20  1  0
 20 21  2  0
 21 22  1  0
 22 23  2  0
 23 24  1  0
 24 25  2  0
 12 26  1  0
 26 27  2  0
 27 28  1  0
 28 29  2  0
 29  1  1  0
 28  3  1  0
  8  4  2  0
 27  9  1  0
 25 11  1  0
 19 15  1  0
 25 20  1  0
  1 30  1  0
  1 31  1  0
  2 32  1  0
  5 33  1  0
  6 34  1  0
 10 35  1  0
 13 36  1  0
 16 37  1  0
 17 38  1  0
 18 39  1  0
 21 40  1  0
 22 41  1  0
 23 42  1  0
 24 43  1  0
 26 44  1  0
 29 45  1  0
M  END
