
     RDKit          3D

 47 53  0  0  0  0  0  0  0  0999 V2000
    5.8219   -1.9988   -1.3987 C   0  0  0  0  0  0  0  0  0  0  0  0
    6.2093   -0.5953   -1.0399 C   0  0  0  0  0  0  0  0  0  0  0  0
    5.1273    0.0702   -0.6117 C   0  0  0  0  0  0  0  0  0  0  0  0
    4.9823    1.4136   -0.1632 C   0  0  0  0  0  0  0  0  0  0  0  0
    5.9790    2.4208   -0.0522 C   0  0  0  0  0  0  0  0  0  0  0  0
    5.4518    3.6014    0.4235 C   0  0  0  0  0  0  0  0  0  0  0  0
    3.7721    3.4833    0.7290 S   0  0  0  0  0  0  0  0  0  0  0  0
    3.7226    1.8483    0.2292 C   0  0  0  0  0  0  0  0  0  0  0  0
    2.4936    1.0123    0.2189 C   0  0  0  0  0  0  0  0  0  0  0  0
    1.2405    1.4986    0.6257 C   0  0  0  0  0  0  0  0  0  0  0  0
    0.1512    0.6429    0.5805 C   0  0  0  0  0  0  0  0  0  0  0  0
   -1.2756    0.9193    0.9565 C   0  0  0  0  0  0  0  0  0  0  0  0
   -1.9023   -0.4246    0.6616 C   0  0  0  0  0  0  0  0  0  0  0  0
   -1.0226   -1.3318    0.2031 C   0  0  0  0  0  0  0  0  0  0  0  0
    0.2758   -0.6815    0.1426 C   0  0  0  0  0  0  0  0  0  0  0  0
    1.4947   -1.1916   -0.2648 C   0  0  0  0  0  0  0  0  0  0  0  0
    2.6166   -0.3485   -0.2305 C   0  0  0  0  0  0  0  0  0  0  0  0
    3.9595   -0.8120   -0.6488 C   0  0  0  0  0  0  0  0  0  0  0  0
    4.3489   -2.0161   -1.1038 C   0  0  0  0  0  0  0  0  0  0  0  0
   -3.3300   -0.6631    0.8727 C   0  0  0  0  0  0  0  0  0  0  0  0
   -3.7042   -1.2948    2.0683 C   0  0  0  0  0  0  0  0  0  0  0  0
   -5.0439   -1.5444    2.3463 C   0  0  0  0  0  0  0  0  0  0  0  0
   -6.0231   -1.1677    1.4303 C   0  0  0  0  0  0  0  0  0  0  0  0
   -5.6791   -0.5429    0.2216 C   0  0  0  0  0  0  0  0  0  0  0  0
   -6.6794   -0.1755   -0.6942 C   0  0  0  0  0  0  0  0  0  0  0  0
   -6.3564    0.4384   -1.9036 C   0  0  0  0  0  0  0  0  0  0  0  0
   -5.0272    0.6910   -2.2156 C   0  0  0  0  0  0  0  0  0  0  0  0
   -4.0212    0.3332   -1.3155 C   0  0  0  0  0  0  0  0  0  0  0  0
   -4.3173   -0.2848   -0.0772 C   0  0  0  0  0  0  0  0  0  0  0  0
    6.0138   -2.2028   -2.4562 H   0  0  0  0  0  0  0  0  0  0  0  0
    6.3556   -2.7258   -0.7796 H   0  0  0  0  0  0  0  0  0  0  0  0
    7.2102   -0.2017   -1.1212 H   0  0  0  0  0  0  0  0  0  0  0  0
    7.0247    2.2976   -0.3038 H   0  0  0  0  0  0  0  0  0  0  0  0
    5.9713    4.5315    0.6077 H   0  0  0  0  0  0  0  0  0  0  0  0
    1.1046    2.5177    0.9711 H   0  0  0  0  0  0  0  0  0  0  0  0
   -1.3578    1.1745    2.0175 H   0  0  0  0  0  0  0  0  0  0  0  0
   -1.6972    1.7122    0.3317 H   0  0  0  0  0  0  0  0  0  0  0  0
   -1.2157   -2.3538   -0.0800 H   0  0  0  0  0  0  0  0  0  0  0  0
    1.5657   -2.2197   -0.6002 H   0  0  0  0  0  0  0  0  0  0  0  0
    3.7259   -2.8847   -1.2478 H   0  0  0  0  0  0  0  0  0  0  0  0
   -2.9478   -1.5909    2.7923 H   0  0  0  0  0  0  0  0  0  0  0  0
   -5.3257   -2.0309    3.2762 H   0  0  0  0  0  0  0  0  0  0  0  0
   -7.0656   -1.3707    1.6669 H   0  0  0  0  0  0  0  0  0  0  0  0
   -7.7266   -0.3688   -0.4708 H   0  0  0  0  0  0  0  0  0  0  0  0
   -7.1428    0.7146   -2.6009 H   0  0  0  0  0  0  0  0  0  0  0  0
   -4.7676    1.1640   -3.1589 H   0  0  0  0  0  0  0  0  0  0  0  0
   -2.9900    0.5374   -1.5961 H   0  0  0  0  0  0  0  0  0  0  0  0
  1  2  1  0
  2  3  2  0
  3  4  1  0
  4  5  1  0
  5  6  2  0
  6  7  1  0
  7  8  1  0
  8  9  1  0
  9 10  2  0
 10 11  1  0
 11 12  1  0
 12 13  1  0
 13 14  2  0
 14 15  1  0
 15 16  1  0
 16 17  2  0
 17 18  1  0
 18 19  2  0
 13 20  1  0
 20 21  2  0
 21 22  1  0
 22 23  2  0
 23 24  1  0
 24 25  2  0
 25 26  1  0
 26 27  2  0
 27 28  1  0
 28 29  2  0
 19  1  1  0
 29 20  1  0
 18  3  1  0
 29 24  1  0
  8  4  2  0
 17  9  1  0
 15 11  2  0
  1 30  1  0
  1 31  1  0
  2 32  1  0
  5 33  1  0
  6 34  1  0
 10 35  1  0
 12 36  1  0
 12 37  1  0
 14 38  1  0
 16 39  1  0
 19 40  1  0
 21 41  1  0
 22 42  1  0
 23 43  1  0
 25 44  1  0
 26 45  1  0
 27 46  1  0
 28 47  1  0
M  END
