
     RDKit          3D

 44 50  0  0  0  0  0  0  0  0999 V2000
   -6.7496   -0.0203   -1.1083 C   0  0  0  0  0  0  0  0  0  0  0  0
   -6.7261    0.1989    0.3809 C   0  0  0  0  0  0  0  0  0  0  0  0
   -5.4547    0.2329    0.8045 C   0  0  0  0  0  0  0  0  0  0  0  0
   -4.9443    0.4208    2.1560 C   0  0  0  0  0  0  0  0  0  0  0  0
   -3.6091    0.4226    2.3724 C   0  0  0  0  0  0  0  0  0  0  0  0
   -2.7792    0.2353    1.2301 C   0  0  0  0  0  0  0  0  0  0  0  0
   -1.4169    0.2121    1.2829 N   0  0  0  0  0  0  0  0  0  0  0  0
   -0.9123    0.0133    0.0134 C   0  0  0  0  0  0  0  0  0  0  0  0
    0.4004   -0.0839   -0.4414 C   0  0  0  0  0  0  0  0  0  0  0  0
    1.7176   -0.0084    0.2755 C   0  0  0  0  0  0  0  0  0  0  0  0
    2.7142   -0.1999   -0.8651 C   0  0  0  0  0  0  0  0  0  0  0  0
    2.0637   -0.3579   -2.0382 C   0  0  0  0  0  0  0  0  0  0  0  0
    0.6286   -0.2905   -1.8056 C   0  0  0  0  0  0  0  0  0  0  0  0
   -0.4060   -0.4008   -2.7145 C   0  0  0  0  0  0  0  0  0  0  0  0
   -1.7277   -0.3026   -2.2537 C   0  0  0  0  0  0  0  0  0  0  0  0
   -1.9963   -0.0935   -0.8775 C   0  0  0  0  0  0  0  0  0  0  0  0
   -3.1632    0.0494   -0.0887 C   0  0  0  0  0  0  0  0  0  0  0  0
   -4.5608    0.0427   -0.3475 C   0  0  0  0  0  0  0  0  0  0  0  0
   -5.2895   -0.1050   -1.4599 C   0  0  0  0  0  0  0  0  0  0  0  0
    4.1425   -0.2167   -0.7531 C   0  0  0  0  0  0  0  0  0  0  0  0
    5.2092   -0.4503   -2.1204 S   0  0  0  0  0  0  0  0  0  0  0  0
    6.6451   -0.3411   -1.1772 C   0  0  0  0  0  0  0  0  0  0  0  0
    6.3110   -0.1354    0.1227 C   0  0  0  0  0  0  0  0  0  0  0  0
    7.0224    0.0321    1.3355 C   0  0  0  0  0  0  0  0  0  0  0  0
    6.1410    0.2069    2.3456 C   0  0  0  0  0  0  0  0  0  0  0  0
    4.6978    0.1639    1.8357 C   0  0  0  0  0  0  0  0  0  0  0  0
    4.9208   -0.0637    0.3751 C   0  0  0  0  0  0  0  0  0  0  0  0
   -7.2286    0.8193   -1.6206 H   0  0  0  0  0  0  0  0  0  0  0  0
   -7.2683   -0.9502   -1.3595 H   0  0  0  0  0  0  0  0  0  0  0  0
   -7.6059    0.3094    0.9952 H   0  0  0  0  0  0  0  0  0  0  0  0
   -5.6479    0.5566    2.9690 H   0  0  0  0  0  0  0  0  0  0  0  0
   -3.1947    0.5596    3.3645 H   0  0  0  0  0  0  0  0  0  0  0  0
   -0.8556    0.3220    2.1147 H   0  0  0  0  0  0  0  0  0  0  0  0
    1.8422    0.9695    0.7507 H   0  0  0  0  0  0  0  0  0  0  0  0
    1.8012   -0.8116    1.0140 H   0  0  0  0  0  0  0  0  0  0  0  0
    2.4797   -0.5125   -3.0212 H   0  0  0  0  0  0  0  0  0  0  0  0
   -0.2081   -0.5611   -3.7694 H   0  0  0  0  0  0  0  0  0  0  0  0
   -2.5471   -0.3882   -2.9604 H   0  0  0  0  0  0  0  0  0  0  0  0
   -4.9116   -0.2607   -2.4567 H   0  0  0  0  0  0  0  0  0  0  0  0
    7.6205   -0.4338   -1.6328 H   0  0  0  0  0  0  0  0  0  0  0  0
    8.0992    0.0204    1.4277 H   0  0  0  0  0  0  0  0  0  0  0  0
    6.4035    0.3583    3.3819 H   0  0  0  0  0  0  0  0  0  0  0  0
    4.1925    1.1147    2.0267 H   0  0  0  0  0  0  0  0  0  0  0  0
    4.1500   -0.6624    2.2971 H   0  0  0  0  0  0  0  0  0  0  0  0
  1  2  1  0
  2  3  2  0
  3  4  1  0
  4  5  2  0
  5  6  1  0
  6  7  1  0
  7  8  1  0
  8  9  2  0
  9 10  1  0
 10 11  1  0
 11 12  2  0
 12 13  1  0
 13 14  2  0
 14 15  1  0
 15 16  2  0
 16 17  1  0
 17 18  1  0
 18 19  2  0
 11 20  1  0
 20 21  1  0
 21 22  1  0
 22 23  2  0
 23 24  1  0
 24 25  2  0
 25 26  1  0
 26 27  1  0
 19  1  1  0
 27 20  2  0
 18  3  1  0
 27 23  1  0
 17  6  2  0
 16  8  1  0
 13  9  1  0
  1 28  1  0
  1 29  1  0
  2 30  1  0
  4 31  1  0
  5 32  1  0
  7 33  1  0
 10 34  1  0
 10 35  1  0
 12 36  1  0
 14 37  1  0
 15 38  1  0
 19 39  1  0
 22 40  1  0
 24 41  1  0
 25 42  1  0
 26 43  1  0
 26 44  1  0
M  END
