
     RDKit          3D

 38 43  0  0  0  0  0  0  0  0999 V2000
    5.1859   -2.3140   -1.5237 C   0  0  0  0  0  0  0  0  0  0  0  0
    5.9708   -1.2580   -0.7866 C   0  0  0  0  0  0  0  0  0  0  0  0
    5.1230   -0.3853   -0.2236 C   0  0  0  0  0  0  0  0  0  0  0  0
    5.4102    0.7976    0.5835 C   0  0  0  0  0  0  0  0  0  0  0  0
    4.3940    1.5549    1.0632 C   0  0  0  0  0  0  0  0  0  0  0  0
    3.0721    1.1308    0.7362 C   0  0  0  0  0  0  0  0  0  0  0  0
    1.9399    1.7905    1.1462 N   0  0  0  0  0  0  0  0  0  0  0  0
    0.8639    1.0942    0.6430 C   0  0  0  0  0  0  0  0  0  0  0  0
   -0.5327    1.0635    0.5792 C   0  0  0  0  0  0  0  0  0  0  0  0
   -1.4351    1.9044    1.1204 N   0  0  0  0  0  0  0  0  0  0  0  0
   -2.7153    1.5393    0.8332 C   0  0  0  0  0  0  0  0  0  0  0  0
   -3.1296    0.4278    0.0721 C   0  0  0  0  0  0  0  0  0  0  0  0
   -2.1339   -0.4098   -0.4659 C   0  0  0  0  0  0  0  0  0  0  0  0
   -0.8197   -0.0535   -0.1850 C   0  0  0  0  0  0  0  0  0  0  0  0
    0.3106   -0.7082   -0.5909 O   0  0  0  0  0  0  0  0  0  0  0  0
    1.3315    0.0280   -0.0623 C   0  0  0  0  0  0  0  0  0  0  0  0
    2.7235    0.0204   -0.0241 C   0  0  0  0  0  0  0  0  0  0  0  0
    3.7482   -0.7930   -0.5414 C   0  0  0  0  0  0  0  0  0  0  0  0
    3.7585   -1.9007   -1.2888 C   0  0  0  0  0  0  0  0  0  0  0  0
   -4.5542    0.1514   -0.1543 C   0  0  0  0  0  0  0  0  0  0  0  0
   -5.4736    0.0866    0.9013 C   0  0  0  0  0  0  0  0  0  0  0  0
   -6.8188   -0.1786    0.6489 C   0  0  0  0  0  0  0  0  0  0  0  0
   -7.2152   -0.3739   -0.6624 C   0  0  0  0  0  0  0  0  0  0  0  0
   -6.3707   -0.3218   -1.7122 N   0  0  0  0  0  0  0  0  0  0  0  0
   -5.0697   -0.0625   -1.4342 C   0  0  0  0  0  0  0  0  0  0  0  0
    5.4263   -2.3064   -2.5910 H   0  0  0  0  0  0  0  0  0  0  0  0
    5.3805   -3.3073   -1.1085 H   0  0  0  0  0  0  0  0  0  0  0  0
    7.0478   -1.2263   -0.7320 H   0  0  0  0  0  0  0  0  0  0  0  0
    6.4442    1.0515    0.7867 H   0  0  0  0  0  0  0  0  0  0  0  0
    4.5771    2.4381    1.6647 H   0  0  0  0  0  0  0  0  0  0  0  0
    1.8531    2.6286    1.7084 H   0  0  0  0  0  0  0  0  0  0  0  0
   -3.4575    2.2181    1.2531 H   0  0  0  0  0  0  0  0  0  0  0  0
   -2.3579   -1.2918   -1.0536 H   0  0  0  0  0  0  0  0  0  0  0  0
    2.8908   -2.4193   -1.6658 H   0  0  0  0  0  0  0  0  0  0  0  0
   -5.1487    0.2267    1.9301 H   0  0  0  0  0  0  0  0  0  0  0  0
   -7.5386   -0.2359    1.4578 H   0  0  0  0  0  0  0  0  0  0  0  0
   -8.2516   -0.5848   -0.9101 H   0  0  0  0  0  0  0  0  0  0  0  0
   -4.4293   -0.0213   -2.3127 H   0  0  0  0  0  0  0  0  0  0  0  0
  1  2  1  0
  2  3  2  0
  3  4  1  0
  4  5  2  0
  5  6  1  0
  6  7  1  0
  7  8  1  0
  8  9  1  0
  9 10  2  0
 10 11  1  0
 11 12  2  0
 12 13  1  0
 13 14  2  0
 14 15  1  0
 15 16  1  0
 16 17  1  0
 17 18  1  0
 18 19  2  0
 12 20  1  0
 20 21  2  0
 21 22  1  0
 22 23  2  0
 23 24  1  0
 24 25  2  0
 19  1  1  0
 25 20  1  0
 18  3  1  0
 17  6  2  0
 16  8  2  0
 14  9  1  0
  1 26  1  0
  1 27  1  0
  2 28  1  0
  4 29  1  0
  5 30  1  0
  7 31  1  0
 11 32  1  0
 13 33  1  0
 19 34  1  0
 21 35  1  0
 22 36  1  0
 23 37  1  0
 25 38  1  0
M  END
