
     RDKit          3D

 47 54  0  0  0  0  0  0  0  0999 V2000
   -3.9520    3.8988   -0.2048 C   0  0  0  0  0  0  0  0  0  0  0  0
   -5.1421    2.9986   -0.2649 C   0  0  0  0  0  0  0  0  0  0  0  0
   -4.7255    1.7270   -0.2348 C   0  0  0  0  0  0  0  0  0  0  0  0
   -5.5194    0.5383   -0.2718 C   0  0  0  0  0  0  0  0  0  0  0  0
   -4.8795   -0.6414   -0.2302 C   0  0  0  0  0  0  0  0  0  0  0  0
   -3.3995   -0.7874   -0.1482 C   0  0  0  0  0  0  0  0  0  0  0  0
   -2.5899    0.3408   -0.1099 C   0  0  0  0  0  0  0  0  0  0  0  0
   -1.1700    0.0824   -0.0303 C   0  0  0  0  0  0  0  0  0  0  0  0
   -0.1903    1.0609    0.0187 N   0  0  0  0  0  0  0  0  0  0  0  0
    1.0052    0.4328    0.0877 C   0  0  0  0  0  0  0  0  0  0  0  0
    2.3318    0.8700    0.1585 C   0  0  0  0  0  0  0  0  0  0  0  0
    3.0915   -0.2615    0.2062 C   0  0  0  0  0  0  0  0  0  0  0  0
    2.1791   -1.5461    0.1626 C   0  0  0  0  0  0  0  0  0  0  0  0
    0.8460   -0.9188    0.0860 C   0  0  0  0  0  0  0  0  0  0  0  0
   -0.5203   -1.1562    0.0120 C   0  0  0  0  0  0  0  0  0  0  0  0
   -1.3001   -2.3350   -0.0246 C   0  0  0  0  0  0  0  0  0  0  0  0
   -0.8610   -3.6067    0.0063 C   0  0  0  0  0  0  0  0  0  0  0  0
   -2.2849   -4.7946   -0.0656 Si  0  0  0  0  0  4  0  0  0  0  0  0
   -3.4442   -3.3261   -0.1371 C   0  0  0  0  0  0  0  0  0  0  0  0
   -2.7746   -2.1505   -0.1066 C   0  0  0  0  0  0  0  0  0  0  0  0
    4.5162   -0.2146    0.2843 C   0  0  0  0  0  0  0  0  0  0  0  0
    5.4349   -1.7201    0.3424 S   0  0  0  0  0  0  0  0  0  0  0  0
    6.9707   -0.9369    0.4229 C   0  0  0  0  0  0  0  0  0  0  0  0
    6.7500    0.3871    0.4040 C   0  0  0  0  0  0  0  0  0  0  0  0
    7.7057    1.3545    0.4517 O   0  0  0  0  0  0  0  0  0  0  0  0
    6.9016    2.4755    0.4018 C   0  0  0  0  0  0  0  0  0  0  0  0
    5.5318    2.1944    0.3279 C   0  0  0  0  0  0  0  0  0  0  0  0
    5.4362    0.7863    0.3298 C   0  0  0  0  0  0  0  0  0  0  0  0
   -3.2657    1.6550   -0.1544 C   0  0  0  0  0  0  0  0  0  0  0  0
   -2.8094    2.9215   -0.1368 C   0  0  0  0  0  0  0  0  0  0  0  0
   -3.8815    4.5231   -1.1004 H   0  0  0  0  0  0  0  0  0  0  0  0
   -3.9793    4.5332    0.6860 H   0  0  0  0  0  0  0  0  0  0  0  0
   -6.1656    3.3349   -0.3229 H   0  0  0  0  0  0  0  0  0  0  0  0
   -6.5990    0.6022   -0.3314 H   0  0  0  0  0  0  0  0  0  0  0  0
   -5.4779   -1.5446   -0.2581 H   0  0  0  0  0  0  0  0  0  0  0  0
   -0.3264    2.0568    0.0064 H   0  0  0  0  0  0  0  0  0  0  0  0
    2.6506    1.8986    0.1706 H   0  0  0  0  0  0  0  0  0  0  0  0
    2.2984   -2.1376    1.0752 H   0  0  0  0  0  0  0  0  0  0  0  0
    2.3975   -2.1470   -0.7251 H   0  0  0  0  0  0  0  0  0  0  0  0
    0.1616   -3.9412    0.0643 H   0  0  0  0  0  0  0  0  0  0  0  0
   -2.4465   -5.5761    1.1842 H   0  0  0  0  0  0  0  0  0  0  0  0
   -2.3091   -5.5895   -1.3170 H   0  0  0  0  0  0  0  0  0  0  0  0
   -4.5056   -3.4943   -0.1945 H   0  0  0  0  0  0  0  0  0  0  0  0
    7.9136   -1.4607    0.4773 H   0  0  0  0  0  0  0  0  0  0  0  0
    7.4490    3.4088    0.4272 H   0  0  0  0  0  0  0  0  0  0  0  0
    4.7452    2.9319    0.2810 H   0  0  0  0  0  0  0  0  0  0  0  0
   -1.7975    3.2736   -0.0835 H   0  0  0  0  0  0  0  0  0  0  0  0
  1  2  1  0
  2  3  2  0
  3  4  1  0
  4  5  2  0
  5  6  1  0
  6  7  2  0
  7  8  1  0
  8  9  1  0
  9 10  1  0
 10 11  1  0
 11 12  2  0
 12 13  1  0
 13 14  1  0
 14 15  1  0
 15 16  1  0
 16 17  2  0
 17 18  1  0
 18 19  1  0
 19 20  2  0
 12 21  1  0
 21 22  1  0
 22 23  1  0
 23 24  2  0
 24 25  1  0
 25 26  1  0
 26 27  2  0
 27 28  1  0
  7 29  1  0
 29 30  2  0
 30  1  1  0
 29  3  1  0
 20  6  1  0
 28 21  2  0
 15  8  2  0
 20 16  1  0
 28 24  1  0
 14 10  2  0
  1 31  1  0
  1 32  1  0
  2 33  1  0
  4 34  1  0
  5 35  1  0
  9 36  1  0
 11 37  1  0
 13 38  1  0
 13 39  1  0
 17 40  1  0
 18 41  1  0
 18 42  1  0
 19 43  1  0
 23 44  1  0
 26 45  1  0
 27 46  1  0
 30 47  1  0
M  END
