
     RDKit          3D

 47 54  0  0  0  0  0  0  0  0999 V2000
   -3.6267   -4.2173    0.5116 C   0  0  0  0  0  0  0  0  0  0  0  0
   -4.8973   -3.5647    0.0663 C   0  0  0  0  0  0  0  0  0  0  0  0
   -4.6612   -2.2664   -0.1599 C   0  0  0  0  0  0  0  0  0  0  0  0
   -5.5992   -1.2361   -0.4855 C   0  0  0  0  0  0  0  0  0  0  0  0
   -5.1432    0.0272   -0.5170 C   0  0  0  0  0  0  0  0  0  0  0  0
   -3.7218    0.4004   -0.2943 C   0  0  0  0  0  0  0  0  0  0  0  0
   -2.7514   -0.5673   -0.1308 C   0  0  0  0  0  0  0  0  0  0  0  0
   -1.2797   -0.1691   -0.1186 C   0  0  0  0  0  0  0  0  0  0  0  0
   -0.2669   -1.1174   -0.3500 C   0  0  0  0  0  0  0  0  0  0  0  0
    1.0952   -0.7529   -0.2807 C   0  0  0  0  0  0  0  0  0  0  0  0
    2.4546   -1.7832   -0.4864 S   0  0  0  0  0  0  0  0  0  0  0  0
    3.5833   -0.5189   -0.2226 C   0  0  0  0  0  0  0  0  0  0  0  0
    2.9178    0.6721    0.0014 C   0  0  0  0  0  0  0  0  0  0  0  0
    1.4878    0.5554   -0.0308 C   0  0  0  0  0  0  0  0  0  0  0  0
    0.4793    1.5330    0.1113 C   0  0  0  0  0  0  0  0  0  0  0  0
   -0.8809    1.1776    0.0369 C   0  0  0  0  0  0  0  0  0  0  0  0
   -1.9322    2.1954    0.0080 C   0  0  0  0  0  0  0  0  0  0  0  0
   -1.8526    3.5333    0.1037 C   0  0  0  0  0  0  0  0  0  0  0  0
   -3.2163    4.1292   -0.0644 C   0  0  0  0  0  0  0  0  0  0  0  0
   -4.0706    2.9141   -0.2667 C   0  0  0  0  0  0  0  0  0  0  0  0
   -3.3129    1.8034   -0.2211 C   0  0  0  0  0  0  0  0  0  0  0  0
    5.0075   -0.7367   -0.2571 C   0  0  0  0  0  0  0  0  0  0  0  0
    5.7901   -2.2932   -0.1678 S   0  0  0  0  0  0  0  0  0  0  0  0
    7.3935   -1.6313   -0.2630 C   0  0  0  0  0  0  0  0  0  0  0  0
    7.2737   -0.2918   -0.3559 C   0  0  0  0  0  0  0  0  0  0  0  0
    8.0782    0.8519   -0.4651 C   0  0  0  0  0  0  0  0  0  0  0  0
    7.1762    1.9212   -0.5179 C   0  0  0  0  0  0  0  0  0  0  0  0
    5.8472    1.5468   -0.4496 O   0  0  0  0  0  0  0  0  0  0  0  0
    5.9870    0.1927   -0.3516 C   0  0  0  0  0  0  0  0  0  0  0  0
   -3.2502   -1.9492    0.0553 C   0  0  0  0  0  0  0  0  0  0  0  0
   -2.6538   -3.0715    0.4979 C   0  0  0  0  0  0  0  0  0  0  0  0
   -3.7299   -4.6306    1.5193 H   0  0  0  0  0  0  0  0  0  0  0  0
   -3.3189   -5.0057   -0.1813 H   0  0  0  0  0  0  0  0  0  0  0  0
   -5.8531   -4.0609    0.0046 H   0  0  0  0  0  0  0  0  0  0  0  0
   -6.6411   -1.4760   -0.6578 H   0  0  0  0  0  0  0  0  0  0  0  0
   -5.8439    0.8246   -0.7401 H   0  0  0  0  0  0  0  0  0  0  0  0
   -0.5044   -2.1397   -0.6180 H   0  0  0  0  0  0  0  0  0  0  0  0
    3.4248    1.6121    0.1833 H   0  0  0  0  0  0  0  0  0  0  0  0
    0.7758    2.5685    0.2479 H   0  0  0  0  0  0  0  0  0  0  0  0
   -0.9609    4.1210    0.2531 H   0  0  0  0  0  0  0  0  0  0  0  0
   -3.5193    4.6807    0.8303 H   0  0  0  0  0  0  0  0  0  0  0  0
   -3.2554    4.7887   -0.9363 H   0  0  0  0  0  0  0  0  0  0  0  0
   -5.1400    2.9630   -0.3956 H   0  0  0  0  0  0  0  0  0  0  0  0
    8.2691   -2.2643   -0.2446 H   0  0  0  0  0  0  0  0  0  0  0  0
    9.1554    0.9254   -0.5046 H   0  0  0  0  0  0  0  0  0  0  0  0
    7.3254    2.9898   -0.6036 H   0  0  0  0  0  0  0  0  0  0  0  0
   -1.6381   -3.1832    0.8398 H   0  0  0  0  0  0  0  0  0  0  0  0
  1  2  1  0
  2  3  2  0
  3  4  1  0
  4  5  2  0
  5  6  1  0
  6  7  2  0
  7  8  1  0
  8  9  2  0
  9 10  1  0
 10 11  1  0
 11 12  1  0
 12 13  2  0
 13 14  1  0
 14 15  1  0
 15 16  2  0
 16 17  1  0
 17 18  2  0
 18 19  1  0
 19 20  1  0
 20 21  2  0
 12 22  1  0
 22 23  1  0
 23 24  1  0
 24 25  2  0
 25 26  1  0
 26 27  2  0
 27 28  1  0
 28 29  1  0
  7 30  1  0
 30 31  2  0
 31  1  1  0
 30  3  1  0
 21  6  1  0
 29 22  2  0
 16  8  1  0
 21 17  1  0
 29 25  1  0
 14 10  2  0
  1 32  1  0
  1 33  1  0
  2 34  1  0
  4 35  1  0
  5 36  1  0
  9 37  1  0
 13 38  1  0
 15 39  1  0
 18 40  1  0
 19 41  1  0
 19 42  1  0
 20 43  1  0
 24 44  1  0
 26 45  1  0
 27 46  1  0
 31 47  1  0
M  END
