
     RDKit          3D

 45 51  0  0  0  0  0  0  0  0999 V2000
   -5.0126    2.9985    1.8692 C   0  0  0  0  0  0  0  0  0  0  0  0
   -5.9103    2.0756    1.1124 C   0  0  0  0  0  0  0  0  0  0  0  0
   -5.1609    1.1611    0.4846 C   0  0  0  0  0  0  0  0  0  0  0  0
   -5.6004    0.0890   -0.3497 C   0  0  0  0  0  0  0  0  0  0  0  0
   -4.6618   -0.7112   -0.8781 C   0  0  0  0  0  0  0  0  0  0  0  0
   -3.1968   -0.5527   -0.6507 C   0  0  0  0  0  0  0  0  0  0  0  0
   -2.7179    0.4725    0.1516 C   0  0  0  0  0  0  0  0  0  0  0  0
   -1.2619    0.5500    0.3179 C   0  0  0  0  0  0  0  0  0  0  0  0
   -0.4644    1.7543    1.2784 S   0  0  0  0  0  0  0  0  0  0  0  0
    1.0860    1.1052    0.9078 C   0  0  0  0  0  0  0  0  0  0  0  0
    2.4552    1.3561    1.1972 C   0  0  0  0  0  0  0  0  0  0  0  0
    3.1908    0.3876    0.5273 C   0  0  0  0  0  0  0  0  0  0  0  0
    2.2881   -0.4155   -0.1405 N   0  0  0  0  0  0  0  0  0  0  0  0
    1.0080    0.0250    0.0940 C   0  0  0  0  0  0  0  0  0  0  0  0
   -0.3256   -0.3118   -0.2570 C   0  0  0  0  0  0  0  0  0  0  0  0
   -0.7692   -1.3785   -1.0876 C   0  0  0  0  0  0  0  0  0  0  0  0
   -0.0254   -2.3044   -1.7247 C   0  0  0  0  0  0  0  0  0  0  0  0
   -1.0922   -3.4871   -2.6883 Si  0  0  0  0  0  4  0  0  0  0  0  0
   -2.5775   -2.5357   -2.0874 C   0  0  0  0  0  0  0  0  0  0  0  0
   -2.2361   -1.4993   -1.2870 C   0  0  0  0  0  0  0  0  0  0  0  0
    4.6511    0.1751    0.4765 C   0  0  0  0  0  0  0  0  0  0  0  0
    5.5179    1.0280    1.1785 C   0  0  0  0  0  0  0  0  0  0  0  0
    6.9043    0.8442    1.1437 C   0  0  0  0  0  0  0  0  0  0  0  0
    7.4512   -0.1989    0.4042 C   0  0  0  0  0  0  0  0  0  0  0  0
    6.6120   -1.0568   -0.2994 C   0  0  0  0  0  0  0  0  0  0  0  0
    5.2250   -0.8713   -0.2634 C   0  0  0  0  0  0  0  0  0  0  0  0
   -3.7371    1.3732    0.7491 C   0  0  0  0  0  0  0  0  0  0  0  0
   -3.6505    2.4464    1.5578 C   0  0  0  0  0  0  0  0  0  0  0  0
   -5.2171    2.9586    2.9431 H   0  0  0  0  0  0  0  0  0  0  0  0
   -5.1107    4.0280    1.5126 H   0  0  0  0  0  0  0  0  0  0  0  0
   -6.9862    2.1489    1.0872 H   0  0  0  0  0  0  0  0  0  0  0  0
   -6.6562   -0.0606   -0.5402 H   0  0  0  0  0  0  0  0  0  0  0  0
   -4.9959   -1.5246   -1.5112 H   0  0  0  0  0  0  0  0  0  0  0  0
    2.8353    2.1525    1.8212 H   0  0  0  0  0  0  0  0  0  0  0  0
    2.4947   -1.2133   -0.7221 H   0  0  0  0  0  0  0  0  0  0  0  0
    1.0425   -2.4196   -1.7313 H   0  0  0  0  0  0  0  0  0  0  0  0
   -0.8888   -3.3659   -4.1514 H   0  0  0  0  0  0  0  0  0  0  0  0
   -1.0380   -4.8653   -2.1462 H   0  0  0  0  0  0  0  0  0  0  0  0
   -3.5592   -2.8511   -2.3962 H   0  0  0  0  0  0  0  0  0  0  0  0
    5.1287    1.8541    1.7674 H   0  0  0  0  0  0  0  0  0  0  0  0
    7.5531    1.5188    1.6963 H   0  0  0  0  0  0  0  0  0  0  0  0
    8.5279   -0.3426    0.3765 H   0  0  0  0  0  0  0  0  0  0  0  0
    7.0346   -1.8735   -0.8789 H   0  0  0  0  0  0  0  0  0  0  0  0
    4.6129   -1.5663   -0.8285 H   0  0  0  0  0  0  0  0  0  0  0  0
   -2.7664    2.9032    1.9651 H   0  0  0  0  0  0  0  0  0  0  0  0
  1  2  1  0
  2  3  2  0
  3  4  1  0
  4  5  2  0
  5  6  1  0
  6  7  2  0
  7  8  1  0
  8  9  1  0
  9 10  1  0
 10 11  1  0
 11 12  2  0
 12 13  1  0
 13 14  1  0
 14 15  1  0
 15 16  1  0
 16 17  2  0
 17 18  1  0
 18 19  1  0
 19 20  2  0
 12 21  1  0
 21 22  2  0
 22 23  1  0
 23 24  2  0
 24 25  1  0
 25 26  2  0
  7 27  1  0
 27 28  2  0
 28  1  1  0
 27  3  1  0
 20  6  1  0
 26 21  1  0
 15  8  2  0
 20 16  1  0
 14 10  2  0
  1 29  1  0
  1 30  1  0
  2 31  1  0
  4 32  1  0
  5 33  1  0
 11 34  1  0
 13 35  1  0
 17 36  1  0
 18 37  1  0
 18 38  1  0
 19 39  1  0
 22 40  1  0
 23 41  1  0
 24 42  1  0
 25 43  1  0
 26 44  1  0
 28 45  1  0
M  END
