
     RDKit          3D

 42 48  0  0  0  0  0  0  0  0999 V2000
    2.3041   -2.1198    2.9690 Si  0  0  0  0  0  4  0  0  0  0  0  0
    3.3268   -1.2721    1.6790 C   0  0  0  0  0  0  0  0  0  0  0  0
    2.5628   -0.6515    0.7551 C   0  0  0  0  0  0  0  0  0  0  0  0
    3.0997    0.1101   -0.3772 C   0  0  0  0  0  0  0  0  0  0  0  0
    2.2312    0.7104   -1.2193 C   0  0  0  0  0  0  0  0  0  0  0  0
    0.7655    0.6125   -1.0571 C   0  0  0  0  0  0  0  0  0  0  0  0
   -0.0713    1.2496   -1.9677 C   0  0  0  0  0  0  0  0  0  0  0  0
   -1.4180    1.2385   -1.9465 N   0  0  0  0  0  0  0  0  0  0  0  0
   -1.9684    0.5222   -0.9373 C   0  0  0  0  0  0  0  0  0  0  0  0
   -1.2190   -0.1602    0.0346 C   0  0  0  0  0  0  0  0  0  0  0  0
   -2.1340   -0.7751    0.8728 N   0  0  0  0  0  0  0  0  0  0  0  0
   -3.4354   -0.5120    0.4983 C   0  0  0  0  0  0  0  0  0  0  0  0
   -4.6730   -0.9189    1.0535 C   0  0  0  0  0  0  0  0  0  0  0  0
   -5.8882   -0.5058    0.4656 C   0  0  0  0  0  0  0  0  0  0  0  0
   -5.7231    0.3016   -0.6612 C   0  0  0  0  0  0  0  0  0  0  0  0
   -6.7911    0.8019   -1.3712 C   0  0  0  0  0  0  0  0  0  0  0  0
   -6.2770    1.7657   -2.7142 S   0  0  0  0  0  0  0  0  0  0  0  0
   -4.6080    1.5203   -2.3552 C   0  0  0  0  0  0  0  0  0  0  0  0
   -4.5104    0.7301   -1.2487 C   0  0  0  0  0  0  0  0  0  0  0  0
   -3.3080    0.2892   -0.6201 C   0  0  0  0  0  0  0  0  0  0  0  0
    0.1862   -0.1217    0.0021 C   0  0  0  0  0  0  0  0  0  0  0  0
    1.0908   -0.7820    0.9722 C   0  0  0  0  0  0  0  0  0  0  0  0
    0.7739   -1.4988    2.0718 C   0  0  0  0  0  0  0  0  0  0  0  0
    4.4915    0.2937   -0.6585 C   0  0  0  0  0  0  0  0  0  0  0  0
    5.3245    1.3329   -0.2805 C   0  0  0  0  0  0  0  0  0  0  0  0
    6.6606    1.1681   -0.7477 C   0  0  0  0  0  0  0  0  0  0  0  0
    6.8126    0.0063   -1.4690 C   0  0  0  0  0  0  0  0  0  0  0  0
    5.3539   -0.8780   -1.5794 S   0  0  0  0  0  0  0  0  0  0  0  0
    2.4037   -3.5978    2.9220 H   0  0  0  0  0  0  0  0  0  0  0  0
    2.4344   -1.5087    4.3131 H   0  0  0  0  0  0  0  0  0  0  0  0
    4.4048   -1.3034    1.7160 H   0  0  0  0  0  0  0  0  0  0  0  0
    2.5918    1.2883   -2.0669 H   0  0  0  0  0  0  0  0  0  0  0  0
    0.3442    1.8233   -2.7935 H   0  0  0  0  0  0  0  0  0  0  0  0
   -1.8981   -1.3557    1.6588 H   0  0  0  0  0  0  0  0  0  0  0  0
   -4.6964   -1.5528    1.9369 H   0  0  0  0  0  0  0  0  0  0  0  0
   -6.8488   -0.8018    0.8691 H   0  0  0  0  0  0  0  0  0  0  0  0
   -7.8486    0.6666   -1.1924 H   0  0  0  0  0  0  0  0  0  0  0  0
   -3.8307    1.9609   -2.9645 H   0  0  0  0  0  0  0  0  0  0  0  0
   -0.1790   -1.7483    2.4922 H   0  0  0  0  0  0  0  0  0  0  0  0
    4.9847    2.1757    0.3100 H   0  0  0  0  0  0  0  0  0  0  0  0
    7.4678    1.8662   -0.5629 H   0  0  0  0  0  0  0  0  0  0  0  0
    7.7112   -0.3697   -1.9383 H   0  0  0  0  0  0  0  0  0  0  0  0
  1  2  1  0
  2  3  2  0
  3  4  1  0
  4  5  2  0
  5  6  1  0
  6  7  2  0
  7  8  1  0
  8  9  2  0
  9 10  1  0
 10 11  1  0
 11 12  1  0
 12 13  1  0
 13 14  2  0
 14 15  1  0
 15 16  2  0
 16 17  1  0
 17 18  1  0
 18 19  2  0
 19 20  1  0
 10 21  2  0
 21 22  1  0
 22 23  2  0
  4 24  1  0
 24 25  2  0
 25 26  1  0
 26 27  2  0
 27 28  1  0
 23  1  1  0
 28 24  1  0
 22  3  1  0
 21  6  1  0
 20  9  1  0
 20 12  2  0
 19 15  1  0
  1 29  1  0
  1 30  1  0
  2 31  1  0
  5 32  1  0
  7 33  1  0
 11 34  1  0
 13 35  1  0
 14 36  1  0
 16 37  1  0
 18 38  1  0
 23 39  1  0
 25 40  1  0
 26 41  1  0
 27 42  1  0
M  END
