
     RDKit          3D

 50 57  0  0  0  0  0  0  0  0999 V2000
   -4.0322   -2.8924   -2.0602 C   0  0  0  0  0  0  0  0  0  0  0  0
   -5.2270   -2.3798   -1.3234 C   0  0  0  0  0  0  0  0  0  0  0  0
   -4.8610   -1.3406   -0.5609 C   0  0  0  0  0  0  0  0  0  0  0  0
   -5.7266   -0.4828    0.1997 C   0  0  0  0  0  0  0  0  0  0  0  0
   -5.2099    0.6124    0.7786 C   0  0  0  0  0  0  0  0  0  0  0  0
   -3.7678    0.8943    0.6962 C   0  0  0  0  0  0  0  0  0  0  0  0
   -3.1975    2.0402    1.2537 C   0  0  0  0  0  0  0  0  0  0  0  0
   -3.8383    3.0884    1.8727 C   0  0  0  0  0  0  0  0  0  0  0  0
   -2.8737    3.9950    2.2513 N   0  0  0  0  0  0  0  0  0  0  0  0
   -1.6271    3.5356    1.8898 C   0  0  0  0  0  0  0  0  0  0  0  0
   -1.8014    2.3220    1.2656 C   0  0  0  0  0  0  0  0  0  0  0  0
   -0.7966    1.4667    0.7570 C   0  0  0  0  0  0  0  0  0  0  0  0
    0.5895    1.7492    0.8225 C   0  0  0  0  0  0  0  0  0  0  0  0
    1.5188    0.8184    0.3626 C   0  0  0  0  0  0  0  0  0  0  0  0
    2.9625    1.1385    0.4371 C   0  0  0  0  0  0  0  0  0  0  0  0
    3.9295    0.2832    0.0324 C   0  0  0  0  0  0  0  0  0  0  0  0
    5.2923    0.7147    0.1633 C   0  0  0  0  0  0  0  0  0  0  0  0
    6.1967    0.2175    0.9892 N   0  0  0  0  0  0  0  0  0  0  0  0
    7.4073    0.8598    0.8300 C   0  0  0  0  0  0  0  0  0  0  0  0
    7.4366    1.8441   -0.1300 C   0  0  0  0  0  0  0  0  0  0  0  0
    5.8987    1.9780   -0.8673 S   0  0  0  0  0  0  0  0  0  0  0  0
    3.5204   -1.0298   -0.4748 C   0  0  0  0  0  0  0  0  0  0  0  0
    4.3659   -1.9959   -0.8926 C   0  0  0  0  0  0  0  0  0  0  0  0
    3.4535   -3.5153   -1.4590 Si  0  0  0  0  0  4  0  0  0  0  0  0
    1.8542   -2.6334   -1.0545 C   0  0  0  0  0  0  0  0  0  0  0  0
    2.0844   -1.3949   -0.5686 C   0  0  0  0  0  0  0  0  0  0  0  0
    1.0596   -0.4146   -0.1383 C   0  0  0  0  0  0  0  0  0  0  0  0
   -0.3273   -0.6711   -0.1999 C   0  0  0  0  0  0  0  0  0  0  0  0
   -1.3248    0.2574    0.1898 C   0  0  0  0  0  0  0  0  0  0  0  0
   -2.7816    0.0251    0.0855 C   0  0  0  0  0  0  0  0  0  0  0  0
   -3.4155   -1.1073   -0.6688 C   0  0  0  0  0  0  0  0  0  0  0  0
   -2.9443   -1.9691   -1.5900 C   0  0  0  0  0  0  0  0  0  0  0  0
   -4.1736   -2.8095   -3.1420 H   0  0  0  0  0  0  0  0  0  0  0  0
   -3.8129   -3.9305   -1.7948 H   0  0  0  0  0  0  0  0  0  0  0  0
   -6.2306   -2.7543   -1.4523 H   0  0  0  0  0  0  0  0  0  0  0  0
   -6.7854   -0.7065    0.2609 H   0  0  0  0  0  0  0  0  0  0  0  0
   -5.8489    1.2844    1.3376 H   0  0  0  0  0  0  0  0  0  0  0  0
   -4.8802    3.2899    2.0788 H   0  0  0  0  0  0  0  0  0  0  0  0
   -3.0540    4.8675    2.7310 H   0  0  0  0  0  0  0  0  0  0  0  0
   -0.7474    4.1194    2.1214 H   0  0  0  0  0  0  0  0  0  0  0  0
    0.9294    2.6902    1.2448 H   0  0  0  0  0  0  0  0  0  0  0  0
    3.2187    2.1128    0.8461 H   0  0  0  0  0  0  0  0  0  0  0  0
    8.2469    0.5640    1.4472 H   0  0  0  0  0  0  0  0  0  0  0  0
    8.2649    2.4703   -0.4273 H   0  0  0  0  0  0  0  0  0  0  0  0
    5.4444   -1.9562   -0.9063 H   0  0  0  0  0  0  0  0  0  0  0  0
    3.6008   -3.7618   -2.9137 H   0  0  0  0  0  0  0  0  0  0  0  0
    3.6839   -4.6909   -0.5855 H   0  0  0  0  0  0  0  0  0  0  0  0
    0.9106   -3.1272   -1.2144 H   0  0  0  0  0  0  0  0  0  0  0  0
   -0.6306   -1.6606   -0.5130 H   0  0  0  0  0  0  0  0  0  0  0  0
   -1.9534   -2.0144   -2.0076 H   0  0  0  0  0  0  0  0  0  0  0  0
  1  2  1  0
  2  3  2  0
  3  4  1  0
  4  5  2  0
  5  6  1  0
  6  7  1  0
  7  8  2  0
  8  9  1  0
  9 10  1  0
 10 11  2  0
 11 12  1  0
 12 13  2  0
 13 14  1  0
 14 15  1  0
 15 16  2  0
 16 17  1  0
 17 18  2  0
 18 19  1  0
 19 20  2  0
 20 21  1  0
 16 22  1  0
 22 23  2  0
 23 24  1  0
 24 25  1  0
 25 26  2  0
 26 27  1  0
 27 28  1  0
 28 29  2  0
 29 30  1  0
 30 31  1  0
 31 32  2  0
 32  1  1  0
 31  3  1  0
 30  6  2  0
 11  7  1  0
 29 12  1  0
 27 14  2  0
 21 17  1  0
 26 22  1  0
  1 33  1  0
  1 34  1  0
  2 35  1  0
  4 36  1  0
  5 37  1  0
  8 38  1  0
  9 39  1  0
 10 40  1  0
 13 41  1  0
 15 42  1  0
 19 43  1  0
 20 44  1  0
 23 45  1  0
 24 46  1  0
 24 47  1  0
 25 48  1  0
 28 49  1  0
 32 50  1  0
M  END
