
     RDKit          3D

 40 46  0  0  0  0  0  0  0  0999 V2000
   -5.0737    2.0656    0.9572 C   0  0  0  0  0  0  0  0  0  0  0  0
   -5.6622    0.8825    0.2511 C   0  0  0  0  0  0  0  0  0  0  0  0
   -4.6738    0.0851   -0.1770 C   0  0  0  0  0  0  0  0  0  0  0  0
   -4.7960   -1.1528   -0.8988 C   0  0  0  0  0  0  0  0  0  0  0  0
   -3.6845   -1.8218   -1.2481 C   0  0  0  0  0  0  0  0  0  0  0  0
   -2.3573   -1.2946   -0.8967 C   0  0  0  0  0  0  0  0  0  0  0  0
   -1.1721   -1.9453   -1.2329 C   0  0  0  0  0  0  0  0  0  0  0  0
   -0.9909   -3.1242   -1.9098 C   0  0  0  0  0  0  0  0  0  0  0  0
    0.3451   -3.3928   -2.0195 O   0  0  0  0  0  0  0  0  0  0  0  0
    1.0197   -2.3743   -1.4060 C   0  0  0  0  0  0  0  0  0  0  0  0
    0.1249   -1.4623   -0.9083 C   0  0  0  0  0  0  0  0  0  0  0  0
    0.3689   -0.2772   -0.2131 C   0  0  0  0  0  0  0  0  0  0  0  0
    1.6097    0.2422    0.1306 C   0  0  0  0  0  0  0  0  0  0  0  0
    2.8338   -0.2924   -0.1374 O   0  0  0  0  0  0  0  0  0  0  0  0
    3.7900    0.5465    0.3815 C   0  0  0  0  0  0  0  0  0  0  0  0
    3.1510    1.6207    0.9823 C   0  0  0  0  0  0  0  0  0  0  0  0
    1.7555    1.4300    0.8240 C   0  0  0  0  0  0  0  0  0  0  0  0
    0.6007    2.1142    1.1809 C   0  0  0  0  0  0  0  0  0  0  0  0
   -0.6229    1.6152    0.8497 N   0  0  0  0  0  0  0  0  0  0  0  0
   -0.7948    0.4534    0.1704 C   0  0  0  0  0  0  0  0  0  0  0  0
   -2.1124   -0.0584   -0.1717 C   0  0  0  0  0  0  0  0  0  0  0  0
   -3.3752    0.6506    0.1957 C   0  0  0  0  0  0  0  0  0  0  0  0
   -3.6003    1.8010    0.8548 C   0  0  0  0  0  0  0  0  0  0  0  0
    5.2033    0.3021    0.2881 C   0  0  0  0  0  0  0  0  0  0  0  0
    6.0972    1.1272    0.7969 N   0  0  0  0  0  0  0  0  0  0  0  0
    7.3677    0.6398    0.5576 C   0  0  0  0  0  0  0  0  0  0  0  0
    7.4285   -0.5517   -0.1311 C   0  0  0  0  0  0  0  0  0  0  0  0
    5.8419   -1.0877   -0.4959 S   0  0  0  0  0  0  0  0  0  0  0  0
   -5.3423    2.9993    0.4547 H   0  0  0  0  0  0  0  0  0  0  0  0
   -5.3957    2.1024    2.0020 H   0  0  0  0  0  0  0  0  0  0  0  0
   -6.7199    0.7162    0.1181 H   0  0  0  0  0  0  0  0  0  0  0  0
   -5.7821   -1.5274   -1.1500 H   0  0  0  0  0  0  0  0  0  0  0  0
   -3.7606   -2.7557   -1.7920 H   0  0  0  0  0  0  0  0  0  0  0  0
   -1.6443   -3.8590   -2.3582 H   0  0  0  0  0  0  0  0  0  0  0  0
    2.0975   -2.4607   -1.4189 H   0  0  0  0  0  0  0  0  0  0  0  0
    3.6514    2.4432    1.4762 H   0  0  0  0  0  0  0  0  0  0  0  0
    0.6043    3.0522    1.7247 H   0  0  0  0  0  0  0  0  0  0  0  0
   -2.8560    2.4647    1.2653 H   0  0  0  0  0  0  0  0  0  0  0  0
    8.2251    1.1998    0.9115 H   0  0  0  0  0  0  0  0  0  0  0  0
    8.3008   -1.1156   -0.4284 H   0  0  0  0  0  0  0  0  0  0  0  0
  1  2  1  0
  2  3  2  0
  3  4  1  0
  4  5  2  0
  5  6  1  0
  6  7  1  0
  7  8  2  0
  8  9  1  0
  9 10  1  0
 10 11  2  0
 11 12  1  0
 12 13  2  0
 13 14  1  0
 14 15  1  0
 15 16  2  0
 16 17  1  0
 17 18  2  0
 18 19  1  0
 19 20  2  0
 20 21  1  0
 21 22  1  0
 22 23  2  0
 15 24  1  0
 24 25  2  0
 25 26  1  0
 26 27  2  0
 27 28  1  0
 23  1  1  0
 28 24  1  0
 22  3  1  0
 21  6  2  0
 11  7  1  0
 20 12  1  0
 17 13  1  0
  1 29  1  0
  1 30  1  0
  2 31  1  0
  4 32  1  0
  5 33  1  0
  8 34  1  0
 10 35  1  0
 16 36  1  0
 18 37  1  0
 23 38  1  0
 26 39  1  0
 27 40  1  0
M  END
