
     RDKit          3D

 47 54  0  0  0  0  0  0  0  0999 V2000
   -5.4496   -3.0060   -0.9721 C   0  0  0  0  0  0  0  0  0  0  0  0
   -6.3550   -1.9128   -0.5037 C   0  0  0  0  0  0  0  0  0  0  0  0
   -5.6154   -0.8662   -0.1137 C   0  0  0  0  0  0  0  0  0  0  0  0
   -6.0887    0.4294    0.2796 C   0  0  0  0  0  0  0  0  0  0  0  0
   -5.1966    1.4122    0.4815 C   0  0  0  0  0  0  0  0  0  0  0  0
   -3.7447    1.1600    0.3693 C   0  0  0  0  0  0  0  0  0  0  0  0
   -2.7810    2.1600    0.5608 C   0  0  0  0  0  0  0  0  0  0  0  0
   -3.0886    3.4818    0.8014 C   0  0  0  0  0  0  0  0  0  0  0  0
   -1.6939    4.4313    1.0703 S   0  0  0  0  0  0  0  0  0  0  0  0
   -0.6673    3.0729    0.8738 C   0  0  0  0  0  0  0  0  0  0  0  0
   -1.3472    1.9264    0.5223 C   0  0  0  0  0  0  0  0  0  0  0  0
   -0.7293    0.6434    0.3029 C   0  0  0  0  0  0  0  0  0  0  0  0
    0.6857    0.3015    0.1863 C   0  0  0  0  0  0  0  0  0  0  0  0
    1.7698    1.1732   -0.0015 C   0  0  0  0  0  0  0  0  0  0  0  0
    3.0749    0.8158   -0.0770 N   0  0  0  0  0  0  0  0  0  0  0  0
    3.3644   -0.5007    0.0115 C   0  0  0  0  0  0  0  0  0  0  0  0
    2.3617   -1.4457    0.1440 C   0  0  0  0  0  0  0  0  0  0  0  0
    1.0357   -1.0532    0.2129 C   0  0  0  0  0  0  0  0  0  0  0  0
    0.1239   -2.0190    0.3036 N   0  0  0  0  0  0  0  0  0  0  0  0
   -1.1882   -1.6756    0.2924 C   0  0  0  0  0  0  0  0  0  0  0  0
   -1.7261   -0.3887    0.2229 C   0  0  0  0  0  0  0  0  0  0  0  0
   -3.1667   -0.1369    0.1373 C   0  0  0  0  0  0  0  0  0  0  0  0
   -4.1878   -1.1752   -0.2247 C   0  0  0  0  0  0  0  0  0  0  0  0
   -4.0884   -2.3957   -0.7854 C   0  0  0  0  0  0  0  0  0  0  0  0
    4.7895   -0.8334   -0.0630 C   0  0  0  0  0  0  0  0  0  0  0  0
    5.4342   -2.4463    0.0662 S   0  0  0  0  0  0  0  0  0  0  0  0
    7.0846   -1.9356   -0.1181 C   0  0  0  0  0  0  0  0  0  0  0  0
    7.0787   -0.5966   -0.2647 C   0  0  0  0  0  0  0  0  0  0  0  0
    7.9570    0.4989   -0.4527 C   0  0  0  0  0  0  0  0  0  0  0  0
    7.1592    1.6621   -0.5184 C   0  0  0  0  0  0  0  0  0  0  0  0
    5.8073    1.3625   -0.3810 N   0  0  0  0  0  0  0  0  0  0  0  0
    5.8408    0.0045   -0.2350 C   0  0  0  0  0  0  0  0  0  0  0  0
   -5.5652   -3.9091   -0.3660 H   0  0  0  0  0  0  0  0  0  0  0  0
   -5.6310   -3.2416   -2.0249 H   0  0  0  0  0  0  0  0  0  0  0  0
   -7.4326   -1.9529   -0.5467 H   0  0  0  0  0  0  0  0  0  0  0  0
   -7.1547    0.6066    0.3694 H   0  0  0  0  0  0  0  0  0  0  0  0
   -5.5548    2.3949    0.7604 H   0  0  0  0  0  0  0  0  0  0  0  0
   -4.0518    3.9674    0.8565 H   0  0  0  0  0  0  0  0  0  0  0  0
    0.3788    3.2386    1.0675 H   0  0  0  0  0  0  0  0  0  0  0  0
    1.6279    2.2347   -0.1619 H   0  0  0  0  0  0  0  0  0  0  0  0
    2.5864   -2.5061    0.1878 H   0  0  0  0  0  0  0  0  0  0  0  0
   -1.8236   -2.5470    0.4111 H   0  0  0  0  0  0  0  0  0  0  0  0
   -3.1983   -2.9056   -1.1156 H   0  0  0  0  0  0  0  0  0  0  0  0
    7.9033   -2.6400   -0.1038 H   0  0  0  0  0  0  0  0  0  0  0  0
    9.0355    0.4762   -0.5334 H   0  0  0  0  0  0  0  0  0  0  0  0
    7.4551    2.6943   -0.6541 H   0  0  0  0  0  0  0  0  0  0  0  0
    4.9721    1.9414   -0.3786 H   0  0  0  0  0  0  0  0  0  0  0  0
  1  2  1  0
  2  3  2  0
  3  4  1  0
  4  5  2  0
  5  6  1  0
  6  7  1  0
  7  8  2  0
  8  9  1  0
  9 10  1  0
 10 11  2  0
 11 12  1  0
 12 13  2  0
 13 14  1  0
 14 15  2  0
 15 16  1  0
 16 17  2  0
 17 18  1  0
 18 19  2  0
 19 20  1  0
 20 21  2  0
 21 22  1  0
 22 23  1  0
 23 24  2  0
 16 25  1  0
 25 26  1  0
 26 27  1  0
 27 28  2  0
 28 29  1  0
 29 30  2  0
 30 31  1  0
 31 32  1  0
 24  1  1  0
 32 25  2  0
 23  3  1  0
 32 28  1  0
 22  6  2  0
 11  7  1  0
 21 12  1  0
 18 13  1  0
  1 33  1  0
  1 34  1  0
  2 35  1  0
  4 36  1  0
  5 37  1  0
  8 38  1  0
 10 39  1  0
 14 40  1  0
 17 41  1  0
 20 42  1  0
 24 43  1  0
 27 44  1  0
 29 45  1  0
 30 46  1  0
 31 47  1  0
M  END
