
     RDKit          3D

 48 55  0  0  0  0  0  0  0  0999 V2000
   -4.9843   -2.7913    1.3232 C   0  0  0  0  0  0  0  0  0  0  0  0
   -6.0940   -1.9411    0.7747 C   0  0  0  0  0  0  0  0  0  0  0  0
   -5.5712   -0.8626    0.1755 C   0  0  0  0  0  0  0  0  0  0  0  0
   -6.2579    0.2189   -0.4859 C   0  0  0  0  0  0  0  0  0  0  0  0
   -5.5484    1.2249   -1.0337 C   0  0  0  0  0  0  0  0  0  0  0  0
   -4.0702    1.2371   -0.9667 C   0  0  0  0  0  0  0  0  0  0  0  0
   -3.2640    2.2532   -1.5154 C   0  0  0  0  0  0  0  0  0  0  0  0
   -3.7463    3.3613   -2.1821 C   0  0  0  0  0  0  0  0  0  0  0  0
   -2.4877    4.4110   -2.7276 S   0  0  0  0  0  0  0  0  0  0  0  0
   -1.2576    3.3977   -2.0784 C   0  0  0  0  0  0  0  0  0  0  0  0
   -1.8394    2.3183   -1.4817 C   0  0  0  0  0  0  0  0  0  0  0  0
   -1.1550    1.2475   -0.8265 C   0  0  0  0  0  0  0  0  0  0  0  0
    0.2036    0.9886   -0.6082 C   0  0  0  0  0  0  0  0  0  0  0  0
    1.4416    1.5573   -0.8756 C   0  0  0  0  0  0  0  0  0  0  0  0
    2.5795    0.9391   -0.4600 N   0  0  0  0  0  0  0  0  0  0  0  0
    2.5566   -0.2381    0.2213 C   0  0  0  0  0  0  0  0  0  0  0  0
    1.3486   -0.8648    0.5238 C   0  0  0  0  0  0  0  0  0  0  0  0
    0.2009   -0.2137    0.0887 C   0  0  0  0  0  0  0  0  0  0  0  0
   -1.0726   -0.6682    0.2882 O   0  0  0  0  0  0  0  0  0  0  0  0
   -1.9293    0.2395   -0.2810 C   0  0  0  0  0  0  0  0  0  0  0  0
   -3.3355    0.1891   -0.3223 C   0  0  0  0  0  0  0  0  0  0  0  0
   -4.1144   -0.9040    0.2725 C   0  0  0  0  0  0  0  0  0  0  0  0
   -3.7571   -2.0159    0.9351 C   0  0  0  0  0  0  0  0  0  0  0  0
    3.8621   -0.8098    0.6185 C   0  0  0  0  0  0  0  0  0  0  0  0
    4.0339   -2.0385    1.3404 C   0  0  0  0  0  0  0  0  0  0  0  0
    5.2916   -2.6201    1.7410 C   0  0  0  0  0  0  0  0  0  0  0  0
    6.5450   -2.0457    1.4703 C   0  0  0  0  0  0  0  0  0  0  0  0
    6.3849   -0.8594    0.7736 C   0  0  0  0  0  0  0  0  0  0  0  0
    7.4176   -0.0580    0.3600 C   0  0  0  0  0  0  0  0  0  0  0  0
    6.8502    1.0124   -0.2897 N   0  0  0  0  0  0  0  0  0  0  0  0
    5.4772    0.8949   -0.2903 C   0  0  0  0  0  0  0  0  0  0  0  0
    5.1411   -0.2668    0.3673 C   0  0  0  0  0  0  0  0  0  0  0  0
   -5.0619   -2.8872    2.4102 H   0  0  0  0  0  0  0  0  0  0  0  0
   -4.9844   -3.7840    0.8635 H   0  0  0  0  0  0  0  0  0  0  0  0
   -7.1431   -2.1784    0.8598 H   0  0  0  0  0  0  0  0  0  0  0  0
   -7.3413    0.2054   -0.5324 H   0  0  0  0  0  0  0  0  0  0  0  0
   -6.0676    2.0353   -1.5296 H   0  0  0  0  0  0  0  0  0  0  0  0
   -4.7667    3.6435   -2.3969 H   0  0  0  0  0  0  0  0  0  0  0  0
   -0.2205    3.6747   -2.1870 H   0  0  0  0  0  0  0  0  0  0  0  0
    1.5846    2.4885   -1.4083 H   0  0  0  0  0  0  0  0  0  0  0  0
    1.2678   -1.7974    1.0603 H   0  0  0  0  0  0  0  0  0  0  0  0
   -2.7519   -2.3306    1.1680 H   0  0  0  0  0  0  0  0  0  0  0  0
    3.1543   -2.6126    1.6298 H   0  0  0  0  0  0  0  0  0  0  0  0
    5.2641   -3.5635    2.2874 H   0  0  0  0  0  0  0  0  0  0  0  0
    7.4851   -2.4835    1.7715 H   0  0  0  0  0  0  0  0  0  0  0  0
    8.4909   -0.1402    0.4616 H   0  0  0  0  0  0  0  0  0  0  0  0
    7.3623    1.7775   -0.7083 H   0  0  0  0  0  0  0  0  0  0  0  0
    4.8787    1.6597   -0.7643 H   0  0  0  0  0  0  0  0  0  0  0  0
  1  2  1  0
  2  3  2  0
  3  4  1  0
  4  5  2  0
  5  6  1  0
  6  7  1  0
  7  8  2  0
  8  9  1  0
  9 10  1  0
 10 11  2  0
 11 12  1  0
 12 13  1  0
 13 14  2  0
 14 15  1  0
 15 16  2  0
 16 17  1  0
 17 18  2  0
 18 19  1  0
 19 20  1  0
 20 21  1  0
 21 22  1  0
 22 23  2  0
 16 24  1  0
 24 25  2  0
 25 26  1  0
 26 27  2  0
 27 28  1  0
 28 29  2  0
 29 30  1  0
 30 31  1  0
 31 32  2  0
 23  1  1  0
 32 24  1  0
 22  3  1  0
 32 28  1  0
 21  6  2  0
 11  7  1  0
 20 12  2  0
 18 13  1  0
  1 33  1  0
  1 34  1  0
  2 35  1  0
  4 36  1  0
  5 37  1  0
  8 38  1  0
 10 39  1  0
 14 40  1  0
 17 41  1  0
 23 42  1  0
 25 43  1  0
 26 44  1  0
 27 45  1  0
 29 46  1  0
 30 47  1  0
 31 48  1  0
M  END
