
     RDKit          3D

 42 49  0  0  0  0  0  0  0  0999 V2000
   -5.4143    3.0800    0.2187 C   0  0  0  0  0  0  0  0  0  0  0  0
   -6.1343    1.7724    0.3181 C   0  0  0  0  0  0  0  0  0  0  0  0
   -5.2399    0.7750    0.3189 C   0  0  0  0  0  0  0  0  0  0  0  0
   -5.5061   -0.6355    0.3996 C   0  0  0  0  0  0  0  0  0  0  0  0
   -4.4813   -1.5051    0.3873 C   0  0  0  0  0  0  0  0  0  0  0  0
   -3.0815   -1.0367    0.2923 C   0  0  0  0  0  0  0  0  0  0  0  0
   -1.9849   -1.9219    0.2770 C   0  0  0  0  0  0  0  0  0  0  0  0
   -2.0787   -3.2979    0.3468 C   0  0  0  0  0  0  0  0  0  0  0  0
   -0.5373   -4.0767    0.3033 S   0  0  0  0  0  0  0  0  0  0  0  0
    0.2959   -2.5778    0.1892 C   0  0  0  0  0  0  0  0  0  0  0  0
   -0.6147   -1.5609    0.1886 C   0  0  0  0  0  0  0  0  0  0  0  0
   -0.3518   -0.1626    0.1090 C   0  0  0  0  0  0  0  0  0  0  0  0
    0.9378    0.3437    0.0179 C   0  0  0  0  0  0  0  0  0  0  0  0
    2.1979   -0.1664   -0.0237 O   0  0  0  0  0  0  0  0  0  0  0  0
    3.0520    0.9092   -0.1190 C   0  0  0  0  0  0  0  0  0  0  0  0
    2.3287    2.0911   -0.1369 C   0  0  0  0  0  0  0  0  0  0  0  0
    0.9748    1.6910   -0.0475 C   0  0  0  0  0  0  0  0  0  0  0  0
   -0.6239    2.3679    0.0039 S   0  0  0  0  0  0  0  0  0  0  0  0
   -1.3710    0.7788    0.1177 C   0  0  0  0  0  0  0  0  0  0  0  0
   -2.7367    0.3662    0.2081 C   0  0  0  0  0  0  0  0  0  0  0  0
   -3.8794    1.3117    0.2228 C   0  0  0  0  0  0  0  0  0  0  0  0
   -3.9750    2.6520    0.1642 C   0  0  0  0  0  0  0  0  0  0  0  0
    4.4818    0.7452   -0.1861 C   0  0  0  0  0  0  0  0  0  0  0  0
    5.5855    2.0752   -0.3049 S   0  0  0  0  0  0  0  0  0  0  0  0
    6.9741    1.0631   -0.3308 C   0  0  0  0  0  0  0  0  0  0  0  0
    6.5533   -0.2173   -0.2499 C   0  0  0  0  0  0  0  0  0  0  0  0
    7.2435   -1.4520   -0.2291 C   0  0  0  0  0  0  0  0  0  0  0  0
    6.3768   -2.5452   -0.1336 C   0  0  0  0  0  0  0  0  0  0  0  0
    4.6614   -2.1749   -0.0610 S   0  0  0  0  0  0  0  0  0  0  0  0
    5.1765   -0.4397   -0.1678 C   0  0  0  0  0  0  0  0  0  0  0  0
   -5.6059    3.7049    1.0958 H   0  0  0  0  0  0  0  0  0  0  0  0
   -5.6986    3.6202   -0.6890 H   0  0  0  0  0  0  0  0  0  0  0  0
   -7.2065    1.6688    0.3788 H   0  0  0  0  0  0  0  0  0  0  0  0
   -6.5325   -0.9787    0.4692 H   0  0  0  0  0  0  0  0  0  0  0  0
   -4.6895   -2.5656    0.4484 H   0  0  0  0  0  0  0  0  0  0  0  0
   -2.9541   -3.9258    0.4220 H   0  0  0  0  0  0  0  0  0  0  0  0
    1.3748   -2.5550    0.1320 H   0  0  0  0  0  0  0  0  0  0  0  0
    2.7122    3.0986   -0.2044 H   0  0  0  0  0  0  0  0  0  0  0  0
   -3.1770    3.3698    0.0886 H   0  0  0  0  0  0  0  0  0  0  0  0
    7.9738    1.4681   -0.4017 H   0  0  0  0  0  0  0  0  0  0  0  0
    8.3194   -1.5671   -0.2800 H   0  0  0  0  0  0  0  0  0  0  0  0
    6.6547   -3.5900   -0.1000 H   0  0  0  0  0  0  0  0  0  0  0  0
  1  2  1  0
  2  3  2  0
  3  4  1  0
  4  5  2  0
  5  6  1  0
  6  7  1  0
  7  8  2  0
  8  9  1  0
  9 10  1  0
 10 11  2  0
 11 12  1  0
 12 13  1  0
 13 14  1  0
 14 15  1  0
 15 16  2  0
 16 17  1  0
 17 18  1  0
 18 19  1  0
 19 20  1  0
 20 21  1  0
 21 22  2  0
 15 23  1  0
 23 24  1  0
 24 25  1  0
 25 26  2  0
 26 27  1  0
 27 28  2  0
 28 29  1  0
 29 30  1  0
 22  1  1  0
 30 23  2  0
 21  3  1  0
 30 26  1  0
 20  6  2  0
 11  7  1  0
 19 12  2  0
 17 13  2  0
  1 31  1  0
  1 32  1  0
  2 33  1  0
  4 34  1  0
  5 35  1  0
  8 36  1  0
 10 37  1  0
 16 38  1  0
 22 39  1  0
 25 40  1  0
 27 41  1  0
 28 42  1  0
M  END
