
     RDKit          3D

 48 54  0  0  0  0  0  0  0  0999 V2000
   -6.7788   -0.0227    1.7161 C   0  0  0  0  0  0  0  0  0  0  0  0
   -7.1322   -0.6679    0.4156 C   0  0  0  0  0  0  0  0  0  0  0  0
   -6.0255   -0.7897   -0.3290 C   0  0  0  0  0  0  0  0  0  0  0  0
   -5.9388   -1.2648   -1.6793 C   0  0  0  0  0  0  0  0  0  0  0  0
   -4.7557   -1.2069   -2.3095 C   0  0  0  0  0  0  0  0  0  0  0  0
   -3.5270   -0.7155   -1.6322 C   0  0  0  0  0  0  0  0  0  0  0  0
   -2.3529   -0.6804   -2.3944 C   0  0  0  0  0  0  0  0  0  0  0  0
   -1.1522   -0.2846   -1.8196 C   0  0  0  0  0  0  0  0  0  0  0  0
   -1.1053    0.0356   -0.4523 C   0  0  0  0  0  0  0  0  0  0  0  0
    0.1259    0.3897    0.1453 C   0  0  0  0  0  0  0  0  0  0  0  0
    1.3990    0.5440   -0.3550 N   0  0  0  0  0  0  0  0  0  0  0  0
    2.2815    0.8907    0.6449 C   0  0  0  0  0  0  0  0  0  0  0  0
    1.5472    0.9837    1.8122 C   0  0  0  0  0  0  0  0  0  0  0  0
    0.2059    0.6602    1.5054 C   0  0  0  0  0  0  0  0  0  0  0  0
   -0.8563    0.5934    2.3345 N   0  0  0  0  0  0  0  0  0  0  0  0
   -2.0260    0.2576    1.7303 C   0  0  0  0  0  0  0  0  0  0  0  0
   -2.2610   -0.0016    0.3644 C   0  0  0  0  0  0  0  0  0  0  0  0
   -3.5134   -0.3229   -0.2530 C   0  0  0  0  0  0  0  0  0  0  0  0
   -4.8555   -0.2921    0.4002 C   0  0  0  0  0  0  0  0  0  0  0  0
   -5.2988    0.1993    1.5726 C   0  0  0  0  0  0  0  0  0  0  0  0
    3.7001    1.1374    0.3854 C   0  0  0  0  0  0  0  0  0  0  0  0
    4.1707    2.4483    0.5577 C   0  0  0  0  0  0  0  0  0  0  0  0
    5.4960    2.7675    0.2824 C   0  0  0  0  0  0  0  0  0  0  0  0
    6.3664    1.7788   -0.1686 C   0  0  0  0  0  0  0  0  0  0  0  0
    5.9309    0.4556   -0.3381 C   0  0  0  0  0  0  0  0  0  0  0  0
    6.8285   -0.5291   -0.7843 C   0  0  0  0  0  0  0  0  0  0  0  0
    6.4231   -1.8534   -0.9424 C   0  0  0  0  0  0  0  0  0  0  0  0
    5.1149   -2.2132   -0.6491 C   0  0  0  0  0  0  0  0  0  0  0  0
    4.2097   -1.2457   -0.2073 C   0  0  0  0  0  0  0  0  0  0  0  0
    4.5851    0.1113   -0.0521 C   0  0  0  0  0  0  0  0  0  0  0  0
   -6.9996   -0.6806    2.5615 H   0  0  0  0  0  0  0  0  0  0  0  0
   -7.3066    0.9276    1.8399 H   0  0  0  0  0  0  0  0  0  0  0  0
   -8.1341   -0.9379    0.1198 H   0  0  0  0  0  0  0  0  0  0  0  0
   -6.8286   -1.6298   -2.1794 H   0  0  0  0  0  0  0  0  0  0  0  0
   -4.6741   -1.5421   -3.3385 H   0  0  0  0  0  0  0  0  0  0  0  0
   -2.3645   -0.9625   -3.4447 H   0  0  0  0  0  0  0  0  0  0  0  0
   -0.2620   -0.2616   -2.4409 H   0  0  0  0  0  0  0  0  0  0  0  0
    1.6614    0.4252   -1.3230 H   0  0  0  0  0  0  0  0  0  0  0  0
    1.9321    1.2435    2.7886 H   0  0  0  0  0  0  0  0  0  0  0  0
   -2.8210    0.1584    2.4580 H   0  0  0  0  0  0  0  0  0  0  0  0
   -4.7446    0.7203    2.3331 H   0  0  0  0  0  0  0  0  0  0  0  0
    3.4965    3.2318    0.8983 H   0  0  0  0  0  0  0  0  0  0  0  0
    5.8496    3.7865    0.4152 H   0  0  0  0  0  0  0  0  0  0  0  0
    7.3988    2.0497   -0.3812 H   0  0  0  0  0  0  0  0  0  0  0  0
    7.8615   -0.2702   -1.0079 H   0  0  0  0  0  0  0  0  0  0  0  0
    7.1324   -2.6028   -1.2832 H   0  0  0  0  0  0  0  0  0  0  0  0
    4.7964   -3.2472   -0.7533 H   0  0  0  0  0  0  0  0  0  0  0  0
    3.2009   -1.5710    0.0383 H   0  0  0  0  0  0  0  0  0  0  0  0
  1  2  1  0
  2  3  2  0
  3  4  1  0
  4  5  2  0
  5  6  1  0
  6  7  2  0
  7  8  1  0
  8  9  2  0
  9 10  1  0
 10 11  1  0
 11 12  1  0
 12 13  2  0
 13 14  1  0
 14 15  1  0
 15 16  2  0
 16 17  1  0
 17 18  2  0
 18 19  1  0
 19 20  2  0
 12 21  1  0
 21 22  2  0
 22 23  1  0
 23 24  2  0
 24 25  1  0
 25 26  2  0
 26 27  1  0
 27 28  2  0
 28 29  1  0
 29 30  2  0
 20  1  1  0
 30 21  1  0
 19  3  1  0
 30 25  1  0
 18  6  1  0
 17  9  1  0
 14 10  2  0
  1 31  1  0
  1 32  1  0
  2 33  1  0
  4 34  1  0
  5 35  1  0
  7 36  1  0
  8 37  1  0
 11 38  1  0
 13 39  1  0
 16 40  1  0
 20 41  1  0
 22 42  1  0
 23 43  1  0
 24 44  1  0
 26 45  1  0
 27 46  1  0
 28 47  1  0
 29 48  1  0
M  END
