
     RDKit          3D

 46 53  0  0  0  0  0  0  0  0999 V2000
   -5.7658    2.6883    0.1112 C   0  0  0  0  0  0  0  0  0  0  0  0
   -6.5958    1.4485    0.0036 C   0  0  0  0  0  0  0  0  0  0  0  0
   -5.7838    0.3875   -0.0946 C   0  0  0  0  0  0  0  0  0  0  0  0
   -6.1565   -0.9688   -0.3728 C   0  0  0  0  0  0  0  0  0  0  0  0
   -5.1850   -1.8564   -0.6367 C   0  0  0  0  0  0  0  0  0  0  0  0
   -3.7455   -1.4891   -0.5656 C   0  0  0  0  0  0  0  0  0  0  0  0
   -2.8204   -2.4623   -0.9337 C   0  0  0  0  0  0  0  0  0  0  0  0
   -1.4543   -2.2143   -0.8320 C   0  0  0  0  0  0  0  0  0  0  0  0
   -0.9479   -1.0301   -0.2690 C   0  0  0  0  0  0  0  0  0  0  0  0
    0.4599   -0.8539   -0.1271 C   0  0  0  0  0  0  0  0  0  0  0  0
    1.9127   -1.9777   -0.6990 Si  0  0  0  0  0  4  0  0  0  0  0  0
    3.1402   -0.7617    0.0344 C   0  0  0  0  0  0  0  0  0  0  0  0
    2.5319    0.3001    0.5995 C   0  0  0  0  0  0  0  0  0  0  0  0
    1.0686    0.2525    0.5180 C   0  0  0  0  0  0  0  0  0  0  0  0
    0.2141    1.2106    1.0840 C   0  0  0  0  0  0  0  0  0  0  0  0
    0.5890    2.2926    1.7877 N   0  0  0  0  0  0  0  0  0  0  0  0
   -0.7995    3.0249    2.2997 S   0  0  0  0  0  0  0  0  0  0  0  0
   -1.9282    2.0262    1.6300 N   0  0  0  0  0  0  0  0  0  0  0  0
   -1.2902    1.0689    0.9321 C   0  0  0  0  0  0  0  0  0  0  0  0
   -1.8943   -0.0285    0.1734 C   0  0  0  0  0  0  0  0  0  0  0  0
   -3.2966   -0.2164   -0.1006 C   0  0  0  0  0  0  0  0  0  0  0  0
   -4.3823    0.7996    0.0078 C   0  0  0  0  0  0  0  0  0  0  0  0
   -4.3689    2.1439    0.0418 C   0  0  0  0  0  0  0  0  0  0  0  0
    4.5482   -0.9081   -0.0336 C   0  0  0  0  0  0  0  0  0  0  0  0
    5.3487   -2.4649    0.1430 S   0  0  0  0  0  0  0  0  0  0  0  0
    6.9458   -1.8155   -0.0271 C   0  0  0  0  0  0  0  0  0  0  0  0
    6.8314   -0.4862   -0.2020 C   0  0  0  0  0  0  0  0  0  0  0  0
    7.8487    0.4061   -0.3751 N   0  0  0  0  0  0  0  0  0  0  0  0
    7.1420    1.5994   -0.5058 C   0  0  0  0  0  0  0  0  0  0  0  0
    5.7494    1.3907   -0.4086 C   0  0  0  0  0  0  0  0  0  0  0  0
    5.5441   -0.0007   -0.2025 C   0  0  0  0  0  0  0  0  0  0  0  0
   -5.9632    3.3647   -0.7257 H   0  0  0  0  0  0  0  0  0  0  0  0
   -5.9431    3.2089    1.0566 H   0  0  0  0  0  0  0  0  0  0  0  0
   -7.6722    1.4386   -0.0664 H   0  0  0  0  0  0  0  0  0  0  0  0
   -7.2041   -1.2425   -0.4185 H   0  0  0  0  0  0  0  0  0  0  0  0
   -5.4405   -2.8816   -0.8841 H   0  0  0  0  0  0  0  0  0  0  0  0
   -3.1508   -3.4254   -1.3170 H   0  0  0  0  0  0  0  0  0  0  0  0
   -0.7951   -3.0126   -1.1656 H   0  0  0  0  0  0  0  0  0  0  0  0
    1.8591   -3.2875    0.0005 H   0  0  0  0  0  0  0  0  0  0  0  0
    1.9601   -2.0579   -2.1817 H   0  0  0  0  0  0  0  0  0  0  0  0
    3.0342    1.1287    1.0838 H   0  0  0  0  0  0  0  0  0  0  0  0
   -3.5071    2.7883    0.0041 H   0  0  0  0  0  0  0  0  0  0  0  0
    7.8326   -2.4318    0.0131 H   0  0  0  0  0  0  0  0  0  0  0  0
    8.8441    0.2222   -0.3984 H   0  0  0  0  0  0  0  0  0  0  0  0
    7.6906    2.5196   -0.6615 H   0  0  0  0  0  0  0  0  0  0  0  0
    4.9957    2.1634   -0.4832 H   0  0  0  0  0  0  0  0  0  0  0  0
  1  2  1  0
  2  3  2  0
  3  4  1  0
  4  5  2  0
  5  6  1  0
  6  7  2  0
  7  8  1  0
  8  9  2  0
  9 10  1  0
 10 11  1  0
 11 12  1  0
 12 13  2  0
 13 14  1  0
 14 15  1  0
 15 16  2  0
 16 17  1  0
 17 18  1  0
 18 19  2  0
 19 20  1  0
 20 21  2  0
 21 22  1  0
 22 23  2  0
 12 24  1  0
 24 25  1  0
 25 26  1  0
 26 27  2  0
 27 28  1  0
 28 29  1  0
 29 30  2  0
 30 31  1  0
 23  1  1  0
 31 24  2  0
 22  3  1  0
 31 27  1  0
 21  6  1  0
 20  9  1  0
 14 10  2  0
 19 15  1  0
  1 32  1  0
  1 33  1  0
  2 34  1  0
  4 35  1  0
  5 36  1  0
  7 37  1  0
  8 38  1  0
 11 39  1  0
 11 40  1  0
 13 41  1  0
 23 42  1  0
 26 43  1  0
 28 44  1  0
 29 45  1  0
 30 46  1  0
M  END
