
     RDKit          3D

 50 57  0  0  0  0  0  0  0  0999 V2000
   -5.4498   -1.7726   -2.5475 C   0  0  0  0  0  0  0  0  0  0  0  0
   -6.4748   -1.2343   -1.5970 C   0  0  0  0  0  0  0  0  0  0  0  0
   -5.8526   -0.5859   -0.6034 C   0  0  0  0  0  0  0  0  0  0  0  0
   -6.4288   -0.0592    0.6013 C   0  0  0  0  0  0  0  0  0  0  0  0
   -5.6032    0.3537    1.5777 C   0  0  0  0  0  0  0  0  0  0  0  0
   -4.1259    0.3504    1.4067 C   0  0  0  0  0  0  0  0  0  0  0  0
   -3.3338    0.6681    2.5020 C   0  0  0  0  0  0  0  0  0  0  0  0
   -1.9403    0.6970    2.3851 C   0  0  0  0  0  0  0  0  0  0  0  0
   -1.2513    0.5295    1.1622 C   0  0  0  0  0  0  0  0  0  0  0  0
    0.2282    0.5910    1.1090 C   0  0  0  0  0  0  0  0  0  0  0  0
    1.0469    0.6492    2.2657 C   0  0  0  0  0  0  0  0  0  0  0  0
    2.4511    0.7000    2.2243 C   0  0  0  0  0  0  0  0  0  0  0  0
    3.1328    0.6983    1.0108 C   0  0  0  0  0  0  0  0  0  0  0  0
    2.3809    0.6422   -0.1614 C   0  0  0  0  0  0  0  0  0  0  0  0
    0.9590    0.5884   -0.1191 C   0  0  0  0  0  0  0  0  0  0  0  0
    0.1104    0.5760   -1.2523 C   0  0  0  0  0  0  0  0  0  0  0  0
    0.5737    0.6927   -2.5455 C   0  0  0  0  0  0  0  0  0  0  0  0
   -0.7052    0.8096   -3.6764 S   0  0  0  0  0  0  0  0  0  0  0  0
   -1.8792    0.7090   -2.4341 C   0  0  0  0  0  0  0  0  0  0  0  0
   -1.3275    0.4638   -1.1944 C   0  0  0  0  0  0  0  0  0  0  0  0
   -2.0950    0.3235    0.0062 C   0  0  0  0  0  0  0  0  0  0  0  0
   -3.5056    0.0673    0.1619 C   0  0  0  0  0  0  0  0  0  0  0  0
   -4.4093   -0.5669   -0.8344 C   0  0  0  0  0  0  0  0  0  0  0  0
   -4.1616   -1.3252   -1.9176 C   0  0  0  0  0  0  0  0  0  0  0  0
    4.5940    0.7311    0.9522 C   0  0  0  0  0  0  0  0  0  0  0  0
    5.4842    1.9510    1.8082 S   0  0  0  0  0  0  0  0  0  0  0  0
    7.0138    1.3646    1.2595 C   0  0  0  0  0  0  0  0  0  0  0  0
    6.8188    0.2846    0.4558 C   0  0  0  0  0  0  0  0  0  0  0  0
    7.6477   -0.6068   -0.2682 C   0  0  0  0  0  0  0  0  0  0  0  0
    6.8734   -1.5194   -0.8986 C   0  0  0  0  0  0  0  0  0  0  0  0
    5.3859   -1.2777   -0.6183 C   0  0  0  0  0  0  0  0  0  0  0  0
    5.4657   -0.0810    0.2698 C   0  0  0  0  0  0  0  0  0  0  0  0
   -5.5703   -1.3485   -3.5485 H   0  0  0  0  0  0  0  0  0  0  0  0
   -5.5003   -2.8642   -2.5998 H   0  0  0  0  0  0  0  0  0  0  0  0
   -7.5342   -1.4256   -1.6693 H   0  0  0  0  0  0  0  0  0  0  0  0
   -7.5051   -0.0538    0.7274 H   0  0  0  0  0  0  0  0  0  0  0  0
   -6.0075    0.7224    2.5147 H   0  0  0  0  0  0  0  0  0  0  0  0
   -3.7823    0.8693    3.4723 H   0  0  0  0  0  0  0  0  0  0  0  0
   -1.4026    0.9176    3.3036 H   0  0  0  0  0  0  0  0  0  0  0  0
    0.6104    0.6323    3.2607 H   0  0  0  0  0  0  0  0  0  0  0  0
    3.0001    0.7260    3.1638 H   0  0  0  0  0  0  0  0  0  0  0  0
    2.8999    0.6545   -1.1153 H   0  0  0  0  0  0  0  0  0  0  0  0
    1.5880    0.7654   -2.9094 H   0  0  0  0  0  0  0  0  0  0  0  0
   -2.9155    0.8439   -2.7059 H   0  0  0  0  0  0  0  0  0  0  0  0
   -3.1939   -1.6158   -2.2956 H   0  0  0  0  0  0  0  0  0  0  0  0
    7.9340    1.8445    1.5604 H   0  0  0  0  0  0  0  0  0  0  0  0
    8.7269   -0.5583   -0.3030 H   0  0  0  0  0  0  0  0  0  0  0  0
    7.2383   -2.3220   -1.5221 H   0  0  0  0  0  0  0  0  0  0  0  0
    4.9423   -2.1360   -0.1063 H   0  0  0  0  0  0  0  0  0  0  0  0
    4.8489   -1.0637   -1.5464 H   0  0  0  0  0  0  0  0  0  0  0  0
  1  2  1  0
  2  3  2  0
  3  4  1  0
  4  5  2  0
  5  6  1  0
  6  7  2  0
  7  8  1  0
  8  9  2  0
  9 10  1  0
 10 11  2  0
 11 12  1  0
 12 13  2  0
 13 14  1  0
 14 15  2  0
 15 16  1  0
 16 17  2  0
 17 18  1  0
 18 19  1  0
 19 20  2  0
 20 21  1  0
 21 22  2  0
 22 23  1  0
 23 24  2  0
 13 25  1  0
 25 26  1  0
 26 27  1  0
 27 28  2  0
 28 29  1  0
 29 30  2  0
 30 31  1  0
 31 32  1  0
 24  1  1  0
 32 25  2  0
 23  3  1  0
 32 28  1  0
 22  6  1  0
 21  9  1  0
 15 10  1  0
 20 16  1  0
  1 33  1  0
  1 34  1  0
  2 35  1  0
  4 36  1  0
  5 37  1  0
  7 38  1  0
  8 39  1  0
 11 40  1  0
 12 41  1  0
 14 42  1  0
 17 43  1  0
 19 44  1  0
 24 45  1  0
 27 46  1  0
 29 47  1  0
 30 48  1  0
 31 49  1  0
 31 50  1  0
M  END
