
     RDKit          3D

 45 52  0  0  0  0  0  0  0  0999 V2000
    5.2654   -2.1646   -1.9691 C   0  0  0  0  0  0  0  0  0  0  0  0
    6.2516   -1.4976   -1.0605 C   0  0  0  0  0  0  0  0  0  0  0  0
    5.5999   -0.6704   -0.2329 C   0  0  0  0  0  0  0  0  0  0  0  0
    6.1525    0.1679    0.7999 C   0  0  0  0  0  0  0  0  0  0  0  0
    5.3291    0.9373    1.5353 C   0  0  0  0  0  0  0  0  0  0  0  0
    3.8623    0.9420    1.3062 C   0  0  0  0  0  0  0  0  0  0  0  0
    3.0309    1.7455    2.0783 C   0  0  0  0  0  0  0  0  0  0  0  0
    1.6886    1.8363    1.9658 N   0  0  0  0  0  0  0  0  0  0  0  0
    1.1421    1.0571    1.0012 C   0  0  0  0  0  0  0  0  0  0  0  0
    1.8828    0.2095    0.1642 C   0  0  0  0  0  0  0  0  0  0  0  0
    0.9800   -0.4127   -0.6824 N   0  0  0  0  0  0  0  0  0  0  0  0
   -0.3148   -0.0050   -0.4323 C   0  0  0  0  0  0  0  0  0  0  0  0
   -1.5540   -0.3567   -1.0334 C   0  0  0  0  0  0  0  0  0  0  0  0
   -2.7721    0.2149   -0.5754 C   0  0  0  0  0  0  0  0  0  0  0  0
   -4.0610   -0.0945   -1.1474 C   0  0  0  0  0  0  0  0  0  0  0  0
   -4.4053    0.0411   -2.8416 S   0  0  0  0  0  0  0  0  0  0  0  0
   -6.0571   -0.4830   -2.6601 C   0  0  0  0  0  0  0  0  0  0  0  0
   -6.2607   -0.7439   -1.3516 C   0  0  0  0  0  0  0  0  0  0  0  0
   -7.2687   -1.1878   -0.4819 C   0  0  0  0  0  0  0  0  0  0  0  0
   -6.6703   -1.2031    0.7848 C   0  0  0  0  0  0  0  0  0  0  0  0
   -5.3474   -0.8001    0.7932 O   0  0  0  0  0  0  0  0  0  0  0  0
   -5.1771   -0.5357   -0.5324 C   0  0  0  0  0  0  0  0  0  0  0  0
   -2.5858    1.1219    0.4766 C   0  0  0  0  0  0  0  0  0  0  0  0
   -3.5279    1.8771    1.1405 C   0  0  0  0  0  0  0  0  0  0  0  0
   -2.9337    2.6567    2.1059 O   0  0  0  0  0  0  0  0  0  0  0  0
   -1.5843    2.4075    2.0653 C   0  0  0  0  0  0  0  0  0  0  0  0
   -1.3750    1.4920    1.0854 C   0  0  0  0  0  0  0  0  0  0  0  0
   -0.1836    0.8959    0.6081 C   0  0  0  0  0  0  0  0  0  0  0  0
    3.2744    0.1341    0.3020 C   0  0  0  0  0  0  0  0  0  0  0  0
    4.1623   -0.7125   -0.5098 C   0  0  0  0  0  0  0  0  0  0  0  0
    3.9549   -1.5777   -1.5172 C   0  0  0  0  0  0  0  0  0  0  0  0
    5.2761   -3.2503   -1.8351 H   0  0  0  0  0  0  0  0  0  0  0  0
    5.4646   -1.9198   -3.0165 H   0  0  0  0  0  0  0  0  0  0  0  0
    7.3168   -1.6689   -1.0832 H   0  0  0  0  0  0  0  0  0  0  0  0
    7.2235    0.1667    0.9697 H   0  0  0  0  0  0  0  0  0  0  0  0
    5.7267    1.5754    2.3179 H   0  0  0  0  0  0  0  0  0  0  0  0
    3.4454    2.3796    2.8590 H   0  0  0  0  0  0  0  0  0  0  0  0
    1.2262   -1.0795   -1.3954 H   0  0  0  0  0  0  0  0  0  0  0  0
   -1.5702   -1.0785   -1.8474 H   0  0  0  0  0  0  0  0  0  0  0  0
   -6.7216   -0.5584   -3.5088 H   0  0  0  0  0  0  0  0  0  0  0  0
   -8.2880   -1.4665   -0.7068 H   0  0  0  0  0  0  0  0  0  0  0  0
   -7.0497   -1.4733    1.7619 H   0  0  0  0  0  0  0  0  0  0  0  0
   -4.6012    1.9844    1.0707 H   0  0  0  0  0  0  0  0  0  0  0  0
   -0.9701    2.9512    2.7685 H   0  0  0  0  0  0  0  0  0  0  0  0
    3.0234   -1.8535   -1.9762 H   0  0  0  0  0  0  0  0  0  0  0  0
  1  2  1  0
  2  3  2  0
  3  4  1  0
  4  5  2  0
  5  6  1  0
  6  7  2  0
  7  8  1  0
  8  9  2  0
  9 10  1  0
 10 11  1  0
 11 12  1  0
 12 13  1  0
 13 14  2  0
 14 15  1  0
 15 16  1  0
 16 17  1  0
 17 18  2  0
 18 19  1  0
 19 20  2  0
 20 21  1  0
 21 22  1  0
 14 23  1  0
 23 24  2  0
 24 25  1  0
 25 26  1  0
 26 27  2  0
 27 28  1  0
 10 29  2  0
 29 30  1  0
 30 31  2  0
 31  1  1  0
 30  3  1  0
 29  6  1  0
 28  9  1  0
 28 12  2  0
 22 15  2  0
 27 23  1  0
 22 18  1  0
  1 32  1  0
  1 33  1  0
  2 34  1  0
  4 35  1  0
  5 36  1  0
  7 37  1  0
 11 38  1  0
 13 39  1  0
 17 40  1  0
 19 41  1  0
 20 42  1  0
 24 43  1  0
 26 44  1  0
 31 45  1  0
M  END
