
     RDKit          3D

 49 56  0  0  0  0  0  0  0  0999 V2000
   -5.9116    2.2645   -0.7269 C   0  0  0  0  0  0  0  0  0  0  0  0
   -6.6620    1.0563   -0.2580 C   0  0  0  0  0  0  0  0  0  0  0  0
   -5.7873    0.0890    0.0480 C   0  0  0  0  0  0  0  0  0  0  0  0
   -6.0699   -1.2817    0.3722 C   0  0  0  0  0  0  0  0  0  0  0  0
   -5.0461   -2.1506    0.4288 C   0  0  0  0  0  0  0  0  0  0  0  0
   -3.6421   -1.7042    0.2482 C   0  0  0  0  0  0  0  0  0  0  0  0
   -2.6232   -2.6352    0.2198 C   0  0  0  0  0  0  0  0  0  0  0  0
   -1.3111   -2.3312    0.1025 N   0  0  0  0  0  0  0  0  0  0  0  0
   -0.9027   -1.0492    0.1194 C   0  0  0  0  0  0  0  0  0  0  0  0
    0.5348   -0.7710    0.0551 C   0  0  0  0  0  0  0  0  0  0  0  0
    1.5915   -1.7131   -0.1089 C   0  0  0  0  0  0  0  0  0  0  0  0
    1.4861   -3.0782   -0.2321 C   0  0  0  0  0  0  0  0  0  0  0  0
    2.7225   -3.6442   -0.3427 O   0  0  0  0  0  0  0  0  0  0  0  0
    3.6385   -2.6370   -0.2920 C   0  0  0  0  0  0  0  0  0  0  0  0
    3.0014   -1.4257   -0.1777 C   0  0  0  0  0  0  0  0  0  0  0  0
    3.5955   -0.1625   -0.0939 C   0  0  0  0  0  0  0  0  0  0  0  0
    2.5954    0.8176    0.1079 C   0  0  0  0  0  0  0  0  0  0  0  0
    1.1672    0.5345    0.1705 C   0  0  0  0  0  0  0  0  0  0  0  0
    0.1667    1.4892    0.4044 C   0  0  0  0  0  0  0  0  0  0  0  0
    0.3528    2.8173    0.6961 C   0  0  0  0  0  0  0  0  0  0  0  0
   -0.8458    3.3952    0.9863 O   0  0  0  0  0  0  0  0  0  0  0  0
   -1.7990    2.4265    0.8704 C   0  0  0  0  0  0  0  0  0  0  0  0
   -1.2415    1.2486    0.4339 C   0  0  0  0  0  0  0  0  0  0  0  0
   -1.8866   -0.0052    0.2173 C   0  0  0  0  0  0  0  0  0  0  0  0
   -3.2772   -0.3441    0.1373 C   0  0  0  0  0  0  0  0  0  0  0  0
   -4.4160    0.5747   -0.1092 C   0  0  0  0  0  0  0  0  0  0  0  0
   -4.4821    1.8083   -0.6399 C   0  0  0  0  0  0  0  0  0  0  0  0
    5.0199    0.1363   -0.1758 C   0  0  0  0  0  0  0  0  0  0  0  0
    5.8507   -0.3834   -1.1678 C   0  0  0  0  0  0  0  0  0  0  0  0
    7.1984   -0.0295   -1.1818 C   0  0  0  0  0  0  0  0  0  0  0  0
    7.6832    0.8395   -0.2140 C   0  0  0  0  0  0  0  0  0  0  0  0
    6.7936    1.3274    0.7260 C   0  0  0  0  0  0  0  0  0  0  0  0
    5.4819    1.0040    0.7600 N   0  0  0  0  0  0  0  0  0  0  0  0
   -6.0934    3.1261   -0.0781 H   0  0  0  0  0  0  0  0  0  0  0  0
   -6.1790    2.5148   -1.7578 H   0  0  0  0  0  0  0  0  0  0  0  0
   -7.7375    0.9672   -0.2615 H   0  0  0  0  0  0  0  0  0  0  0  0
   -7.0963   -1.6029    0.5079 H   0  0  0  0  0  0  0  0  0  0  0  0
   -5.2287   -3.2006    0.6340 H   0  0  0  0  0  0  0  0  0  0  0  0
   -2.8286   -3.7010    0.2782 H   0  0  0  0  0  0  0  0  0  0  0  0
    0.6639   -3.7793   -0.2484 H   0  0  0  0  0  0  0  0  0  0  0  0
    4.6696   -2.9565   -0.3438 H   0  0  0  0  0  0  0  0  0  0  0  0
    2.9278    1.8508    0.2212 H   0  0  0  0  0  0  0  0  0  0  0  0
    1.2113    3.4678    0.7874 H   0  0  0  0  0  0  0  0  0  0  0  0
   -2.7905    2.7440    1.1580 H   0  0  0  0  0  0  0  0  0  0  0  0
   -3.6611    2.4051   -1.0036 H   0  0  0  0  0  0  0  0  0  0  0  0
    5.4598   -1.0421   -1.9368 H   0  0  0  0  0  0  0  0  0  0  0  0
    7.8606   -0.4254   -1.9465 H   0  0  0  0  0  0  0  0  0  0  0  0
    8.7262    1.1347   -0.1959 H   0  0  0  0  0  0  0  0  0  0  0  0
    7.1198    2.0144    1.5018 H   0  0  0  0  0  0  0  0  0  0  0  0
  1  2  1  0
  2  3  2  0
  3  4  1  0
  4  5  2  0
  5  6  1  0
  6  7  2  0
  7  8  1  0
  8  9  2  0
  9 10  1  0
 10 11  1  0
 11 12  2  0
 12 13  1  0
 13 14  1  0
 14 15  2  0
 15 16  1  0
 16 17  2  0
 17 18  1  0
 18 19  1  0
 19 20  2  0
 20 21  1  0
 21 22  1  0
 22 23  2  0
 23 24  1  0
 24 25  2  0
 25 26  1  0
 26 27  2  0
 16 28  1  0
 28 29  2  0
 29 30  1  0
 30 31  2  0
 31 32  1  0
 32 33  2  0
 27  1  1  0
 33 28  1  0
 26  3  1  0
 25  6  1  0
 24  9  1  0
 18 10  2  0
 23 19  1  0
 15 11  1  0
  1 34  1  0
  1 35  1  0
  2 36  1  0
  4 37  1  0
  5 38  1  0
  7 39  1  0
 12 40  1  0
 14 41  1  0
 17 42  1  0
 20 43  1  0
 22 44  1  0
 27 45  1  0
 29 46  1  0
 30 47  1  0
 31 48  1  0
 32 49  1  0
M  END
