
     RDKit          3D

 44 50  0  0  0  0  0  0  0  0999 V2000
   -5.5903   -0.5396   -1.6234 C   0  0  0  0  0  0  0  0  0  0  0  0
   -6.1972   -0.2242   -0.2911 C   0  0  0  0  0  0  0  0  0  0  0  0
   -5.2175   -0.0308    0.6016 C   0  0  0  0  0  0  0  0  0  0  0  0
   -5.3428    0.1235    2.0244 C   0  0  0  0  0  0  0  0  0  0  0  0
   -4.2281    0.0831    2.7741 C   0  0  0  0  0  0  0  0  0  0  0  0
   -2.8834   -0.0306    2.1557 C   0  0  0  0  0  0  0  0  0  0  0  0
   -1.7669   -0.1576    2.9602 C   0  0  0  0  0  0  0  0  0  0  0  0
   -0.4952   -0.2214    2.5043 N   0  0  0  0  0  0  0  0  0  0  0  0
   -0.2366   -0.0493    1.1958 C   0  0  0  0  0  0  0  0  0  0  0  0
    1.1543   -0.0628    0.7935 C   0  0  0  0  0  0  0  0  0  0  0  0
    2.1793   -0.3382    1.7034 C   0  0  0  0  0  0  0  0  0  0  0  0
    3.5139   -0.3767    1.4274 N   0  0  0  0  0  0  0  0  0  0  0  0
    3.8980   -0.1184    0.1557 C   0  0  0  0  0  0  0  0  0  0  0  0
    3.0013    0.1805   -0.8525 C   0  0  0  0  0  0  0  0  0  0  0  0
    1.6290    0.2038   -0.5229 C   0  0  0  0  0  0  0  0  0  0  0  0
    0.5583    0.5251   -1.3705 C   0  0  0  0  0  0  0  0  0  0  0  0
    0.6301    0.9534   -2.6706 C   0  0  0  0  0  0  0  0  0  0  0  0
   -0.6173    1.2870   -3.1070 O   0  0  0  0  0  0  0  0  0  0  0  0
   -1.4822    1.0588   -2.0752 C   0  0  0  0  0  0  0  0  0  0  0  0
   -0.8196    0.5121   -1.0034 C   0  0  0  0  0  0  0  0  0  0  0  0
   -1.3315    0.1545    0.2789 C   0  0  0  0  0  0  0  0  0  0  0  0
   -2.6749    0.0230    0.7586 C   0  0  0  0  0  0  0  0  0  0  0  0
   -3.9103   -0.1193   -0.0500 C   0  0  0  0  0  0  0  0  0  0  0  0
   -4.1179   -0.4984   -1.3230 C   0  0  0  0  0  0  0  0  0  0  0  0
    5.3401   -0.1767   -0.0563 C   0  0  0  0  0  0  0  0  0  0  0  0
    6.1342    0.0155   -1.1754 C   0  0  0  0  0  0  0  0  0  0  0  0
    7.4873   -0.1692   -0.7944 C   0  0  0  0  0  0  0  0  0  0  0  0
    7.4958   -0.4703    0.5472 C   0  0  0  0  0  0  0  0  0  0  0  0
    6.1985   -0.4725    0.9821 N   0  0  0  0  0  0  0  0  0  0  0  0
   -5.8630    0.2067   -2.3750 H   0  0  0  0  0  0  0  0  0  0  0  0
   -5.8911   -1.5348   -1.9639 H   0  0  0  0  0  0  0  0  0  0  0  0
   -7.2559   -0.2460   -0.0831 H   0  0  0  0  0  0  0  0  0  0  0  0
   -6.3263    0.2110    2.4723 H   0  0  0  0  0  0  0  0  0  0  0  0
   -4.2918    0.1585    3.8550 H   0  0  0  0  0  0  0  0  0  0  0  0
   -1.8548   -0.2278    4.0416 H   0  0  0  0  0  0  0  0  0  0  0  0
    1.9495   -0.5546    2.7461 H   0  0  0  0  0  0  0  0  0  0  0  0
    3.3407    0.3929   -1.8580 H   0  0  0  0  0  0  0  0  0  0  0  0
    1.4280    1.1199   -3.3806 H   0  0  0  0  0  0  0  0  0  0  0  0
   -2.4990    1.3643   -2.2737 H   0  0  0  0  0  0  0  0  0  0  0  0
   -3.3725   -0.7848   -2.0473 H   0  0  0  0  0  0  0  0  0  0  0  0
    5.7850    0.2634   -2.1688 H   0  0  0  0  0  0  0  0  0  0  0  0
    8.3588   -0.0906   -1.4312 H   0  0  0  0  0  0  0  0  0  0  0  0
    8.3082   -0.6826    1.2288 H   0  0  0  0  0  0  0  0  0  0  0  0
    5.8760   -0.6598    1.9238 H   0  0  0  0  0  0  0  0  0  0  0  0
  1  2  1  0
  2  3  2  0
  3  4  1  0
  4  5  2  0
  5  6  1  0
  6  7  2  0
  7  8  1  0
  8  9  2  0
  9 10  1  0
 10 11  2  0
 11 12  1  0
 12 13  2  0
 13 14  1  0
 14 15  2  0
 15 16  1  0
 16 17  2  0
 17 18  1  0
 18 19  1  0
 19 20  2  0
 20 21  1  0
 21 22  2  0
 22 23  1  0
 23 24  2  0
 13 25  1  0
 25 26  2  0
 26 27  1  0
 27 28  2  0
 28 29  1  0
 24  1  1  0
 29 25  1  0
 23  3  1  0
 22  6  1  0
 21  9  1  0
 15 10  1  0
 20 16  1  0
  1 30  1  0
  1 31  1  0
  2 32  1  0
  4 33  1  0
  5 34  1  0
  7 35  1  0
 11 36  1  0
 14 37  1  0
 17 38  1  0
 19 39  1  0
 24 40  1  0
 26 41  1  0
 27 42  1  0
 28 43  1  0
 29 44  1  0
M  END
