
     RDKit          3D

 43 49  0  0  0  0  0  0  0  0999 V2000
    5.7619    2.5471    0.0822 C   0  0  0  0  0  0  0  0  0  0  0  0
    6.6576    1.3492    0.1436 C   0  0  0  0  0  0  0  0  0  0  0  0
    5.9104    0.2378    0.1185 C   0  0  0  0  0  0  0  0  0  0  0  0
    6.3612   -1.1279    0.1594 C   0  0  0  0  0  0  0  0  0  0  0  0
    5.4535   -2.1189    0.1249 C   0  0  0  0  0  0  0  0  0  0  0  0
    3.9992   -1.8349    0.0455 C   0  0  0  0  0  0  0  0  0  0  0  0
    3.0922   -2.8782    0.0117 C   0  0  0  0  0  0  0  0  0  0  0  0
    1.7589   -2.7475   -0.0596 N   0  0  0  0  0  0  0  0  0  0  0  0
    1.2694   -1.4729   -0.1017 C   0  0  0  0  0  0  0  0  0  0  0  0
   -0.1331   -1.1425   -0.1791 C   0  0  0  0  0  0  0  0  0  0  0  0
   -1.1680   -2.0336   -0.2224 N   0  0  0  0  0  0  0  0  0  0  0  0
   -2.4057   -1.5015   -0.2929 C   0  0  0  0  0  0  0  0  0  0  0  0
   -2.7187   -0.1461   -0.3167 C   0  0  0  0  0  0  0  0  0  0  0  0
   -1.6469    0.7501   -0.2806 C   0  0  0  0  0  0  0  0  0  0  0  0
   -0.3433    0.2307   -0.2079 C   0  0  0  0  0  0  0  0  0  0  0  0
    1.1311    1.0861   -0.1429 S   0  0  0  0  0  0  0  0  0  0  0  0
    2.0965   -0.3390   -0.0733 C   0  0  0  0  0  0  0  0  0  0  0  0
    3.4968   -0.5111    0.0022 C   0  0  0  0  0  0  0  0  0  0  0  0
    4.4886    0.5847    0.0400 C   0  0  0  0  0  0  0  0  0  0  0  0
    4.3944    1.9258    0.0186 C   0  0  0  0  0  0  0  0  0  0  0  0
   -4.0920    0.3261   -0.3945 C   0  0  0  0  0  0  0  0  0  0  0  0
   -4.6040    1.1708   -1.4192 C   0  0  0  0  0  0  0  0  0  0  0  0
   -5.9680    1.6344   -1.4953 C   0  0  0  0  0  0  0  0  0  0  0  0
   -6.9720    1.3122   -0.5545 C   0  0  0  0  0  0  0  0  0  0  0  0
   -6.4509    0.4972    0.4398 C   0  0  0  0  0  0  0  0  0  0  0  0
   -7.1192   -0.0025    1.5247 C   0  0  0  0  0  0  0  0  0  0  0  0
   -6.2588   -0.7459    2.2855 O   0  0  0  0  0  0  0  0  0  0  0  0
   -5.0338   -0.7156    1.6748 C   0  0  0  0  0  0  0  0  0  0  0  0
   -5.1051    0.0292    0.5242 C   0  0  0  0  0  0  0  0  0  0  0  0
    5.9634    3.1462   -0.8107 H   0  0  0  0  0  0  0  0  0  0  0  0
    5.8703    3.1682    0.9761 H   0  0  0  0  0  0  0  0  0  0  0  0
    7.7343    1.3940    0.1994 H   0  0  0  0  0  0  0  0  0  0  0  0
    7.4236   -1.3372    0.2175 H   0  0  0  0  0  0  0  0  0  0  0  0
    5.7733   -3.1557    0.1550 H   0  0  0  0  0  0  0  0  0  0  0  0
    3.4295   -3.9119    0.0428 H   0  0  0  0  0  0  0  0  0  0  0  0
   -3.1962   -2.2494   -0.3411 H   0  0  0  0  0  0  0  0  0  0  0  0
   -1.8112    1.8241   -0.2946 H   0  0  0  0  0  0  0  0  0  0  0  0
    3.5019    2.5252   -0.0349 H   0  0  0  0  0  0  0  0  0  0  0  0
   -3.9289    1.4878   -2.2168 H   0  0  0  0  0  0  0  0  0  0  0  0
   -6.2382    2.2747   -2.3366 H   0  0  0  0  0  0  0  0  0  0  0  0
   -7.9906    1.6668   -0.6191 H   0  0  0  0  0  0  0  0  0  0  0  0
   -8.1313    0.0647    1.8977 H   0  0  0  0  0  0  0  0  0  0  0  0
   -4.2523   -1.2602    2.1865 H   0  0  0  0  0  0  0  0  0  0  0  0
  1  2  1  0
  2  3  2  0
  3  4  1  0
  4  5  2  0
  5  6  1  0
  6  7  2  0
  7  8  1  0
  8  9  2  0
  9 10  1  0
 10 11  2  0
 11 12  1  0
 12 13  2  0
 13 14  1  0
 14 15  2  0
 15 16  1  0
 16 17  1  0
 17 18  2  0
 18 19  1  0
 19 20  2  0
 13 21  1  0
 21 22  2  0
 22 23  1  0
 23 24  2  0
 24 25  1  0
 25 26  2  0
 26 27  1  0
 27 28  1  0
 28 29  2  0
 20  1  1  0
 29 21  1  0
 19  3  1  0
 29 25  1  0
 18  6  1  0
 17  9  1  0
 15 10  1  0
  1 30  1  0
  1 31  1  0
  2 32  1  0
  4 33  1  0
  5 34  1  0
  7 35  1  0
 12 36  1  0
 14 37  1  0
 20 38  1  0
 22 39  1  0
 23 40  1  0
 24 41  1  0
 26 42  1  0
 28 43  1  0
M  END
