
     RDKit          3D

 47 54  0  0  0  0  0  0  0  0999 V2000
    5.9393    1.3042   -0.1676 C   0  0  0  0  0  0  0  0  0  0  0  0
    6.3983    0.0740    0.5526 C   0  0  0  0  0  0  0  0  0  0  0  0
    5.3302   -0.6619    0.8879 C   0  0  0  0  0  0  0  0  0  0  0  0
    5.2965   -1.8311    1.7206 C   0  0  0  0  0  0  0  0  0  0  0  0
    4.1028   -2.3050    2.1149 C   0  0  0  0  0  0  0  0  0  0  0  0
    2.8292   -1.6971    1.6481 C   0  0  0  0  0  0  0  0  0  0  0  0
    1.6276   -2.1720    2.1674 C   0  0  0  0  0  0  0  0  0  0  0  0
    0.4144   -1.7207    1.8012 N   0  0  0  0  0  0  0  0  0  0  0  0
    0.3989   -0.8211    0.7920 C   0  0  0  0  0  0  0  0  0  0  0  0
   -0.9070   -0.3004    0.4013 C   0  0  0  0  0  0  0  0  0  0  0  0
   -2.0371   -0.5951    1.0877 O   0  0  0  0  0  0  0  0  0  0  0  0
   -3.0737    0.0751    0.4690 C   0  0  0  0  0  0  0  0  0  0  0  0
   -2.5632    0.8059   -0.6033 C   0  0  0  0  0  0  0  0  0  0  0  0
   -1.1811    0.5586   -0.6340 C   0  0  0  0  0  0  0  0  0  0  0  0
   -0.1054    0.9468   -1.4628 C   0  0  0  0  0  0  0  0  0  0  0  0
   -0.1048    1.5934   -2.6348 C   0  0  0  0  0  0  0  0  0  0  0  0
    1.2746    1.5481   -3.2169 C   0  0  0  0  0  0  0  0  0  0  0  0
    2.0363    0.7575   -2.1899 C   0  0  0  0  0  0  0  0  0  0  0  0
    1.2564    0.4774   -1.1297 C   0  0  0  0  0  0  0  0  0  0  0  0
    1.5435   -0.3201    0.1075 C   0  0  0  0  0  0  0  0  0  0  0  0
    2.7895   -0.6677    0.6575 C   0  0  0  0  0  0  0  0  0  0  0  0
    4.1071   -0.0462    0.3739 C   0  0  0  0  0  0  0  0  0  0  0  0
    4.4464    1.1352   -0.1712 C   0  0  0  0  0  0  0  0  0  0  0  0
   -4.4229   -0.0111    0.9369 C   0  0  0  0  0  0  0  0  0  0  0  0
   -4.8284   -0.1427    2.6216 S   0  0  0  0  0  0  0  0  0  0  0  0
   -6.5413   -0.1373    2.3263 C   0  0  0  0  0  0  0  0  0  0  0  0
   -6.7215   -0.0662    0.9926 C   0  0  0  0  0  0  0  0  0  0  0  0
   -7.7533   -0.0421    0.0241 C   0  0  0  0  0  0  0  0  0  0  0  0
   -7.1300    0.0162   -1.2402 C   0  0  0  0  0  0  0  0  0  0  0  0
   -5.7407    0.0293   -1.1288 N   0  0  0  0  0  0  0  0  0  0  0  0
   -5.5758   -0.0070    0.2282 C   0  0  0  0  0  0  0  0  0  0  0  0
    6.3365    1.3437   -1.1859 H   0  0  0  0  0  0  0  0  0  0  0  0
    6.2287    2.2074    0.3777 H   0  0  0  0  0  0  0  0  0  0  0  0
    7.4230   -0.1267    0.8250 H   0  0  0  0  0  0  0  0  0  0  0  0
    6.2244   -2.2774    2.0601 H   0  0  0  0  0  0  0  0  0  0  0  0
    4.0474   -3.1656    2.7742 H   0  0  0  0  0  0  0  0  0  0  0  0
    1.6056   -2.9432    2.9330 H   0  0  0  0  0  0  0  0  0  0  0  0
   -3.1295    1.4492   -1.2605 H   0  0  0  0  0  0  0  0  0  0  0  0
   -0.9664    2.0021   -3.1394 H   0  0  0  0  0  0  0  0  0  0  0  0
    1.2738    1.0329   -4.1820 H   0  0  0  0  0  0  0  0  0  0  0  0
    1.6925    2.5520   -3.3345 H   0  0  0  0  0  0  0  0  0  0  0  0
    3.0607    0.4518   -2.3358 H   0  0  0  0  0  0  0  0  0  0  0  0
    3.7760    1.8960   -0.5372 H   0  0  0  0  0  0  0  0  0  0  0  0
   -7.2558   -0.1997    3.1339 H   0  0  0  0  0  0  0  0  0  0  0  0
   -8.8213   -0.0737    0.1943 H   0  0  0  0  0  0  0  0  0  0  0  0
   -7.5758    0.0386   -2.2265 H   0  0  0  0  0  0  0  0  0  0  0  0
   -5.0248    0.0355   -1.8442 H   0  0  0  0  0  0  0  0  0  0  0  0
  1  2  1  0
  2  3  2  0
  3  4  1  0
  4  5  2  0
  5  6  1  0
  6  7  2  0
  7  8  1  0
  8  9  2  0
  9 10  1  0
 10 11  1  0
 11 12  1  0
 12 13  2  0
 13 14  1  0
 14 15  1  0
 15 16  2  0
 16 17  1  0
 17 18  1  0
 18 19  2  0
 19 20  1  0
 20 21  2  0
 21 22  1  0
 22 23  2  0
 12 24  1  0
 24 25  1  0
 25 26  1  0
 26 27  2  0
 27 28  1  0
 28 29  2  0
 29 30  1  0
 30 31  1  0
 23  1  1  0
 31 24  2  0
 22  3  1  0
 31 27  1  0
 21  6  1  0
 20  9  1  0
 14 10  2  0
 19 15  1  0
  1 32  1  0
  1 33  1  0
  2 34  1  0
  4 35  1  0
  5 36  1  0
  7 37  1  0
 13 38  1  0
 16 39  1  0
 17 40  1  0
 17 41  1  0
 18 42  1  0
 23 43  1  0
 26 44  1  0
 28 45  1  0
 29 46  1  0
 30 47  1  0
M  END
