
     RDKit          3D

 43 49  0  0  0  0  0  0  0  0999 V2000
   -5.7308    0.1288   -1.3387 C   0  0  0  0  0  0  0  0  0  0  0  0
   -6.1318    0.4161    0.0751 C   0  0  0  0  0  0  0  0  0  0  0  0
   -5.0314    0.4944    0.8350 C   0  0  0  0  0  0  0  0  0  0  0  0
   -4.9390    0.9185    2.2043 C   0  0  0  0  0  0  0  0  0  0  0  0
   -3.7214    1.1408    2.7274 C   0  0  0  0  0  0  0  0  0  0  0  0
   -2.4813    0.8775    1.9524 C   0  0  0  0  0  0  0  0  0  0  0  0
   -1.2503    1.1985    2.5130 C   0  0  0  0  0  0  0  0  0  0  0  0
   -0.0591    0.9576    1.9305 N   0  0  0  0  0  0  0  0  0  0  0  0
   -0.0705    0.2703    0.7629 C   0  0  0  0  0  0  0  0  0  0  0  0
    1.2230   -0.0112    0.2397 C   0  0  0  0  0  0  0  0  0  0  0  0
    2.4449    0.3831    0.7314 O   0  0  0  0  0  0  0  0  0  0  0  0
    3.4246   -0.1325   -0.0931 C   0  0  0  0  0  0  0  0  0  0  0  0
    2.8444   -0.8729   -1.1163 C   0  0  0  0  0  0  0  0  0  0  0  0
    1.4806   -0.7679   -0.8776 C   0  0  0  0  0  0  0  0  0  0  0  0
    0.3594   -1.3280   -1.5117 C   0  0  0  0  0  0  0  0  0  0  0  0
    0.2875   -2.1997   -2.5487 C   0  0  0  0  0  0  0  0  0  0  0  0
   -1.0319   -2.5374   -2.6927 O   0  0  0  0  0  0  0  0  0  0  0  0
   -1.7405   -1.8553   -1.7323 C   0  0  0  0  0  0  0  0  0  0  0  0
   -0.9195   -1.0207   -1.0046 C   0  0  0  0  0  0  0  0  0  0  0  0
   -1.2612   -0.1717    0.1003 C   0  0  0  0  0  0  0  0  0  0  0  0
   -2.4996    0.2660    0.6665 C   0  0  0  0  0  0  0  0  0  0  0  0
   -3.8406    0.1991    0.0380 C   0  0  0  0  0  0  0  0  0  0  0  0
   -4.2320    0.0687   -1.2413 C   0  0  0  0  0  0  0  0  0  0  0  0
    4.8074    0.1823    0.2664 C   0  0  0  0  0  0  0  0  0  0  0  0
    5.8843   -0.3025   -0.4723 C   0  0  0  0  0  0  0  0  0  0  0  0
    7.1786    0.0341   -0.0790 C   0  0  0  0  0  0  0  0  0  0  0  0
    7.3629    0.8420    1.0356 C   0  0  0  0  0  0  0  0  0  0  0  0
    6.2401    1.2819    1.7138 C   0  0  0  0  0  0  0  0  0  0  0  0
    4.9767    0.9711    1.3543 N   0  0  0  0  0  0  0  0  0  0  0  0
   -6.0462    0.9363   -2.0060 H   0  0  0  0  0  0  0  0  0  0  0  0
   -6.1442   -0.8219   -1.6875 H   0  0  0  0  0  0  0  0  0  0  0  0
   -7.1432    0.6166    0.3933 H   0  0  0  0  0  0  0  0  0  0  0  0
   -5.8433    1.1065    2.7720 H   0  0  0  0  0  0  0  0  0  0  0  0
   -3.6207    1.4979    3.7475 H   0  0  0  0  0  0  0  0  0  0  0  0
   -1.1795    1.6856    3.4823 H   0  0  0  0  0  0  0  0  0  0  0  0
    3.3597   -1.4055   -1.9011 H   0  0  0  0  0  0  0  0  0  0  0  0
    0.9825   -2.6906   -3.2142 H   0  0  0  0  0  0  0  0  0  0  0  0
   -2.7892   -2.1117   -1.7008 H   0  0  0  0  0  0  0  0  0  0  0  0
   -3.6003   -0.0179   -2.1101 H   0  0  0  0  0  0  0  0  0  0  0  0
    5.7352   -0.9330   -1.3412 H   0  0  0  0  0  0  0  0  0  0  0  0
    8.0347   -0.3319   -0.6386 H   0  0  0  0  0  0  0  0  0  0  0  0
    8.3556    1.1226    1.3688 H   0  0  0  0  0  0  0  0  0  0  0  0
    6.3257    1.9157    2.5918 H   0  0  0  0  0  0  0  0  0  0  0  0
  1  2  1  0
  2  3  2  0
  3  4  1  0
  4  5  2  0
  5  6  1  0
  6  7  2  0
  7  8  1  0
  8  9  2  0
  9 10  1  0
 10 11  1  0
 11 12  1  0
 12 13  2  0
 13 14  1  0
 14 15  1  0
 15 16  2  0
 16 17  1  0
 17 18  1  0
 18 19  2  0
 19 20  1  0
 20 21  2  0
 21 22  1  0
 22 23  2  0
 12 24  1  0
 24 25  2  0
 25 26  1  0
 26 27  2  0
 27 28  1  0
 28 29  2  0
 23  1  1  0
 29 24  1  0
 22  3  1  0
 21  6  1  0
 20  9  1  0
 14 10  2  0
 19 15  1  0
  1 30  1  0
  1 31  1  0
  2 32  1  0
  4 33  1  0
  5 34  1  0
  7 35  1  0
 13 36  1  0
 16 37  1  0
 18 38  1  0
 23 39  1  0
 25 40  1  0
 26 41  1  0
 27 42  1  0
 28 43  1  0
M  END
