
     RDKit          3D

 36 41  0  0  0  0  0  0  0  0999 V2000
    0.5796   -3.2999    1.6314 Si  0  0  0  0  0  4  0  0  0  0  0  0
   -0.7498   -2.0588    1.2773 C   0  0  0  0  0  0  0  0  0  0  0  0
   -0.2531   -0.9244    0.7392 C   0  0  0  0  0  0  0  0  0  0  0  0
   -1.0717    0.2268    0.3379 C   0  0  0  0  0  0  0  0  0  0  0  0
   -0.4526    1.2836   -0.2333 C   0  0  0  0  0  0  0  0  0  0  0  0
    1.0079    1.3354   -0.4525 C   0  0  0  0  0  0  0  0  0  0  0  0
    1.5785    2.4589   -1.0438 C   0  0  0  0  0  0  0  0  0  0  0  0
    2.8915    2.6469   -1.2850 N   0  0  0  0  0  0  0  0  0  0  0  0
    3.6913    1.6285   -0.8936 C   0  0  0  0  0  0  0  0  0  0  0  0
    5.0984    1.5444   -1.0057 C   0  0  0  0  0  0  0  0  0  0  0  0
    5.4792    0.3374   -0.4701 C   0  0  0  0  0  0  0  0  0  0  0  0
    4.3449   -0.3039   -0.0413 N   0  0  0  0  0  0  0  0  0  0  0  0
    3.2239    0.4553   -0.2920 C   0  0  0  0  0  0  0  0  0  0  0  0
    1.8501    0.2713   -0.0623 C   0  0  0  0  0  0  0  0  0  0  0  0
    1.2284   -0.9265    0.5457 C   0  0  0  0  0  0  0  0  0  0  0  0
    1.8214   -2.0723    0.9442 C   0  0  0  0  0  0  0  0  0  0  0  0
   -2.4791    0.3299    0.5104 C   0  0  0  0  0  0  0  0  0  0  0  0
   -3.2762    0.5674    2.0352 S   0  0  0  0  0  0  0  0  0  0  0  0
   -4.8683    0.5702    1.3258 C   0  0  0  0  0  0  0  0  0  0  0  0
   -4.7237    0.3975   -0.0050 C   0  0  0  0  0  0  0  0  0  0  0  0
   -5.4954    0.2991   -1.1731 C   0  0  0  0  0  0  0  0  0  0  0  0
   -4.5654    0.1188   -2.2055 C   0  0  0  0  0  0  0  0  0  0  0  0
   -3.2476    0.0948   -1.7861 O   0  0  0  0  0  0  0  0  0  0  0  0
   -3.4290    0.2680   -0.4465 C   0  0  0  0  0  0  0  0  0  0  0  0
    0.4839   -4.5166    0.7903 H   0  0  0  0  0  0  0  0  0  0  0  0
    0.7860   -3.5376    3.0799 H   0  0  0  0  0  0  0  0  0  0  0  0
   -1.7832   -2.2828    1.4894 H   0  0  0  0  0  0  0  0  0  0  0  0
   -1.0206    2.1559   -0.5481 H   0  0  0  0  0  0  0  0  0  0  0  0
    0.9566    3.2940   -1.3591 H   0  0  0  0  0  0  0  0  0  0  0  0
    5.7513    2.2940   -1.4304 H   0  0  0  0  0  0  0  0  0  0  0  0
    6.4533   -0.1183   -0.3533 H   0  0  0  0  0  0  0  0  0  0  0  0
    4.3478   -1.2058    0.4063 H   0  0  0  0  0  0  0  0  0  0  0  0
    2.8497   -2.3705    0.9107 H   0  0  0  0  0  0  0  0  0  0  0  0
   -5.7542    0.6972    1.9313 H   0  0  0  0  0  0  0  0  0  0  0  0
   -6.5688    0.3475   -1.2858 H   0  0  0  0  0  0  0  0  0  0  0  0
   -4.6850   -0.0055   -3.2740 H   0  0  0  0  0  0  0  0  0  0  0  0
  1  2  1  0
  2  3  2  0
  3  4  1  0
  4  5  2  0
  5  6  1  0
  6  7  2  0
  7  8  1  0
  8  9  2  0
  9 10  1  0
 10 11  2  0
 11 12  1  0
 12 13  1  0
 13 14  2  0
 14 15  1  0
 15 16  2  0
  4 17  1  0
 17 18  1  0
 18 19  1  0
 19 20  2  0
 20 21  1  0
 21 22  2  0
 22 23  1  0
 23 24  1  0
 16  1  1  0
 24 17  2  0
 15  3  1  0
 24 20  1  0
 14  6  1  0
 13  9  1  0
  1 25  1  0
  1 26  1  0
  2 27  1  0
  5 28  1  0
  7 29  1  0
 10 30  1  0
 11 31  1  0
 12 32  1  0
 16 33  1  0
 19 34  1  0
 21 35  1  0
 22 36  1  0
M  END
