
     RDKit          3D

 49 56  0  0  0  0  0  0  0  0999 V2000
    6.3088   -1.1686   -2.2880 C   0  0  0  0  0  0  0  0  0  0  0  0
    6.9488   -0.1197   -1.4356 C   0  0  0  0  0  0  0  0  0  0  0  0
    6.0186    0.4335   -0.6468 C   0  0  0  0  0  0  0  0  0  0  0  0
    6.2208    1.4003    0.3950 C   0  0  0  0  0  0  0  0  0  0  0  0
    5.1731    1.7381    1.1631 C   0  0  0  0  0  0  0  0  0  0  0  0
    3.8188    1.1875    0.9327 C   0  0  0  0  0  0  0  0  0  0  0  0
    2.9019    1.6473    1.8032 N   0  0  0  0  0  0  0  0  0  0  0  0
    1.6343    1.2153    1.6277 C   0  0  0  0  0  0  0  0  0  0  0  0
    1.1732    0.3604    0.6150 C   0  0  0  0  0  0  0  0  0  0  0  0
    2.1455   -0.0141   -0.3561 C   0  0  0  0  0  0  0  0  0  0  0  0
    1.6684   -0.6491   -1.5216 C   0  0  0  0  0  0  0  0  0  0  0  0
    0.3185   -0.9316   -1.7230 C   0  0  0  0  0  0  0  0  0  0  0  0
   -0.6166   -0.6457   -0.7326 C   0  0  0  0  0  0  0  0  0  0  0  0
   -2.0444   -0.8797   -1.0483 C   0  0  0  0  0  0  0  0  0  0  0  0
   -3.0427   -0.6506   -0.1697 C   0  0  0  0  0  0  0  0  0  0  0  0
   -4.3823   -0.8424   -0.6309 C   0  0  0  0  0  0  0  0  0  0  0  0
   -4.9887   -2.4245   -1.0976 S   0  0  0  0  0  0  0  0  0  0  0  0
   -6.5777   -1.8401   -1.4710 C   0  0  0  0  0  0  0  0  0  0  0  0
   -6.5911   -0.5183   -1.2287 C   0  0  0  0  0  0  0  0  0  0  0  0
   -7.6485    0.3230   -1.3861 O   0  0  0  0  0  0  0  0  0  0  0  0
   -7.0606    1.5102   -0.9862 C   0  0  0  0  0  0  0  0  0  0  0  0
   -5.7173    1.3870   -0.6077 C   0  0  0  0  0  0  0  0  0  0  0  0
   -5.4155    0.0237   -0.7749 C   0  0  0  0  0  0  0  0  0  0  0  0
   -2.6733   -0.2246    1.1801 C   0  0  0  0  0  0  0  0  0  0  0  0
   -3.5443   -0.1328    2.2080 C   0  0  0  0  0  0  0  0  0  0  0  0
   -2.6852    0.2192    3.8151 Si  0  0  0  0  0  4  0  0  0  0  0  0
   -1.0682    0.1837    2.8737 C   0  0  0  0  0  0  0  0  0  0  0  0
   -1.2507    0.0278    1.5435 C   0  0  0  0  0  0  0  0  0  0  0  0
   -0.1906   -0.0690    0.4889 C   0  0  0  0  0  0  0  0  0  0  0  0
    3.5182    0.3158   -0.1412 C   0  0  0  0  0  0  0  0  0  0  0  0
    4.7000   -0.1443   -0.9250 C   0  0  0  0  0  0  0  0  0  0  0  0
    4.8739   -1.1140   -1.8423 C   0  0  0  0  0  0  0  0  0  0  0  0
    6.4018   -0.9306   -3.3515 H   0  0  0  0  0  0  0  0  0  0  0  0
    6.7422   -2.1535   -2.0904 H   0  0  0  0  0  0  0  0  0  0  0  0
    8.0049    0.1022   -1.4298 H   0  0  0  0  0  0  0  0  0  0  0  0
    7.2075    1.8128    0.5699 H   0  0  0  0  0  0  0  0  0  0  0  0
    5.2762    2.4465    1.9776 H   0  0  0  0  0  0  0  0  0  0  0  0
    0.9523    1.6720    2.3368 H   0  0  0  0  0  0  0  0  0  0  0  0
    2.3294   -0.8612   -2.3540 H   0  0  0  0  0  0  0  0  0  0  0  0
    0.0122   -1.3684   -2.6712 H   0  0  0  0  0  0  0  0  0  0  0  0
   -2.2658   -1.2027   -2.0627 H   0  0  0  0  0  0  0  0  0  0  0  0
   -7.3799   -2.4687   -1.8282 H   0  0  0  0  0  0  0  0  0  0  0  0
   -7.7266    2.3625   -1.0251 H   0  0  0  0  0  0  0  0  0  0  0  0
   -5.0737    2.1846   -0.2652 H   0  0  0  0  0  0  0  0  0  0  0  0
   -4.6072   -0.3165    2.1832 H   0  0  0  0  0  0  0  0  0  0  0  0
   -2.7968   -0.8964    4.7843 H   0  0  0  0  0  0  0  0  0  0  0  0
   -2.9933    1.5697    4.3432 H   0  0  0  0  0  0  0  0  0  0  0  0
   -0.1513    0.2539    3.4330 H   0  0  0  0  0  0  0  0  0  0  0  0
    4.1430   -1.8099   -2.2172 H   0  0  0  0  0  0  0  0  0  0  0  0
  1  2  1  0
  2  3  2  0
  3  4  1  0
  4  5  2  0
  5  6  1  0
  6  7  2  0
  7  8  1  0
  8  9  2  0
  9 10  1  0
 10 11  1  0
 11 12  2  0
 12 13  1  0
 13 14  1  0
 14 15  2  0
 15 16  1  0
 16 17  1  0
 17 18  1  0
 18 19  2  0
 19 20  1  0
 20 21  1  0
 21 22  2  0
 22 23  1  0
 15 24  1  0
 24 25  2  0
 25 26  1  0
 26 27  1  0
 27 28  2  0
 28 29  1  0
 10 30  2  0
 30 31  1  0
 31 32  2  0
 32  1  1  0
 31  3  1  0
 30  6  1  0
 29  9  1  0
 29 13  2  0
 23 16  2  0
 28 24  1  0
 23 19  1  0
  1 33  1  0
  1 34  1  0
  2 35  1  0
  4 36  1  0
  5 37  1  0
  8 38  1  0
 11 39  1  0
 12 40  1  0
 14 41  1  0
 18 42  1  0
 21 43  1  0
 22 44  1  0
 25 45  1  0
 26 46  1  0
 26 47  1  0
 27 48  1  0
 32 49  1  0
M  END
