
     RDKit          3D

 42 48  0  0  0  0  0  0  0  0999 V2000
   -5.2405    0.2850    2.7643 C   0  0  0  0  0  0  0  0  0  0  0  0
   -6.1014    0.1522    1.5465 C   0  0  0  0  0  0  0  0  0  0  0  0
   -5.3205    0.0320    0.4651 C   0  0  0  0  0  0  0  0  0  0  0  0
   -5.7288   -0.1187   -0.9067 C   0  0  0  0  0  0  0  0  0  0  0  0
   -4.7836   -0.2249   -1.8566 C   0  0  0  0  0  0  0  0  0  0  0  0
   -3.3396   -0.1911   -1.5318 C   0  0  0  0  0  0  0  0  0  0  0  0
   -2.5302   -0.3092   -2.5972 N   0  0  0  0  0  0  0  0  0  0  0  0
   -1.1956   -0.2902   -2.4068 C   0  0  0  0  0  0  0  0  0  0  0  0
   -0.6128   -0.1515   -1.1339 C   0  0  0  0  0  0  0  0  0  0  0  0
   -1.4855   -0.0276   -0.0300 C   0  0  0  0  0  0  0  0  0  0  0  0
   -0.5807    0.1349    1.4306 S   0  0  0  0  0  0  0  0  0  0  0  0
    0.9180    0.0468    0.6507 C   0  0  0  0  0  0  0  0  0  0  0  0
    2.1390    0.1340    1.3894 C   0  0  0  0  0  0  0  0  0  0  0  0
    3.3184    0.0544    0.7310 C   0  0  0  0  0  0  0  0  0  0  0  0
    4.5090    0.1777    1.5138 C   0  0  0  0  0  0  0  0  0  0  0  0
    5.4407    1.2029    1.5523 C   0  0  0  0  0  0  0  0  0  0  0  0
    6.5148    1.0261    2.4037 N   0  0  0  0  0  0  0  0  0  0  0  0
    6.3972   -0.1359    3.0049 C   0  0  0  0  0  0  0  0  0  0  0  0
    5.0215   -1.0696    2.5921 S   0  0  0  0  0  0  0  0  0  0  0  0
    3.2911   -0.1149   -0.7336 C   0  0  0  0  0  0  0  0  0  0  0  0
    4.3938   -0.2211   -1.5059 C   0  0  0  0  0  0  0  0  0  0  0  0
    3.9639   -0.4349   -3.3019 Si  0  0  0  0  0  4  0  0  0  0  0  0
    2.1573   -0.3636   -2.8168 C   0  0  0  0  0  0  0  0  0  0  0  0
    1.9983   -0.2005   -1.4886 C   0  0  0  0  0  0  0  0  0  0  0  0
    0.7767   -0.1090   -0.7192 C   0  0  0  0  0  0  0  0  0  0  0  0
   -2.8863   -0.0458   -0.2080 C   0  0  0  0  0  0  0  0  0  0  0  0
   -3.9067    0.0727    0.8535 C   0  0  0  0  0  0  0  0  0  0  0  0
   -3.8531    0.2195    2.1890 C   0  0  0  0  0  0  0  0  0  0  0  0
   -5.4126    1.2408    3.2678 H   0  0  0  0  0  0  0  0  0  0  0  0
   -5.4153   -0.5378    3.4636 H   0  0  0  0  0  0  0  0  0  0  0  0
   -7.1804    0.1550    1.5579 H   0  0  0  0  0  0  0  0  0  0  0  0
   -6.7836   -0.1446   -1.1549 H   0  0  0  0  0  0  0  0  0  0  0  0
   -5.0433   -0.3399   -2.9029 H   0  0  0  0  0  0  0  0  0  0  0  0
   -0.6217   -0.3896   -3.3175 H   0  0  0  0  0  0  0  0  0  0  0  0
    2.0972    0.2737    2.4666 H   0  0  0  0  0  0  0  0  0  0  0  0
    5.3794    2.1140    0.9685 H   0  0  0  0  0  0  0  0  0  0  0  0
    7.1266   -0.4912    3.7211 H   0  0  0  0  0  0  0  0  0  0  0  0
    5.4245   -0.2014   -1.1874 H   0  0  0  0  0  0  0  0  0  0  0  0
    4.3651    0.7292   -4.1263 H   0  0  0  0  0  0  0  0  0  0  0  0
    4.3483   -1.7656   -3.8281 H   0  0  0  0  0  0  0  0  0  0  0  0
    1.4191   -0.4590   -3.5896 H   0  0  0  0  0  0  0  0  0  0  0  0
   -2.9774    0.2866    2.8115 H   0  0  0  0  0  0  0  0  0  0  0  0
  1  2  1  0
  2  3  2  0
  3  4  1  0
  4  5  2  0
  5  6  1  0
  6  7  2  0
  7  8  1  0
  8  9  2  0
  9 10  1  0
 10 11  1  0
 11 12  1  0
 12 13  1  0
 13 14  2  0
 14 15  1  0
 15 16  2  0
 16 17  1  0
 17 18  2  0
 18 19  1  0
 14 20  1  0
 20 21  2  0
 21 22  1  0
 22 23  1  0
 23 24  2  0
 24 25  1  0
 10 26  2  0
 26 27  1  0
 27 28  2  0
 28  1  1  0
 27  3  1  0
 26  6  1  0
 25  9  1  0
 25 12  2  0
 19 15  1  0
 24 20  1  0
  1 29  1  0
  1 30  1  0
  2 31  1  0
  4 32  1  0
  5 33  1  0
  8 34  1  0
 13 35  1  0
 16 36  1  0
 18 37  1  0
 21 38  1  0
 22 39  1  0
 22 40  1  0
 23 41  1  0
 28 42  1  0
M  END
