
     RDKit          3D

 46 53  0  0  0  0  0  0  0  0999 V2000
    5.3089   -3.3706   -0.0920 C   0  0  0  0  0  0  0  0  0  0  0  0
    6.2151   -2.2354    0.2699 C   0  0  0  0  0  0  0  0  0  0  0  0
    5.4860   -1.1196    0.4050 C   0  0  0  0  0  0  0  0  0  0  0  0
    5.9636    0.2194    0.6052 C   0  0  0  0  0  0  0  0  0  0  0  0
    5.0770    1.2256    0.5373 C   0  0  0  0  0  0  0  0  0  0  0  0
    3.6305    0.9845    0.3330 C   0  0  0  0  0  0  0  0  0  0  0  0
    2.9060    2.1146    0.2541 N   0  0  0  0  0  0  0  0  0  0  0  0
    1.5700    1.9744    0.1048 C   0  0  0  0  0  0  0  0  0  0  0  0
    0.8439    0.7787    0.0859 C   0  0  0  0  0  0  0  0  0  0  0  0
   -0.6159    0.7511   -0.0903 C   0  0  0  0  0  0  0  0  0  0  0  0
   -1.5285    1.7664   -0.5452 C   0  0  0  0  0  0  0  0  0  0  0  0
   -1.2138    2.9914   -1.0940 C   0  0  0  0  0  0  0  0  0  0  0  0
   -2.3867    3.6498   -1.3896 N   0  0  0  0  0  0  0  0  0  0  0  0
   -3.4584    2.8454   -1.1028 C   0  0  0  0  0  0  0  0  0  0  0  0
   -2.9693    1.6510   -0.6272 C   0  0  0  0  0  0  0  0  0  0  0  0
   -3.7306    0.5292   -0.2824 C   0  0  0  0  0  0  0  0  0  0  0  0
   -2.8604   -0.5093    0.1266 C   0  0  0  0  0  0  0  0  0  0  0  0
   -1.4099   -0.4173    0.1934 C   0  0  0  0  0  0  0  0  0  0  0  0
   -0.6635   -1.5677    0.5878 C   0  0  0  0  0  0  0  0  0  0  0  0
   -1.1981   -2.7547    0.9350 N   0  0  0  0  0  0  0  0  0  0  0  0
    0.0441   -3.7479    1.3615 S   0  0  0  0  0  0  0  0  0  0  0  0
    1.3175   -2.7390    1.1043 N   0  0  0  0  0  0  0  0  0  0  0  0
    0.8483   -1.5647    0.6448 C   0  0  0  0  0  0  0  0  0  0  0  0
    1.6363   -0.3944    0.3162 C   0  0  0  0  0  0  0  0  0  0  0  0
    3.0679   -0.3097    0.2955 C   0  0  0  0  0  0  0  0  0  0  0  0
    4.0623   -1.4117    0.2154 C   0  0  0  0  0  0  0  0  0  0  0  0
    3.9652   -2.7024   -0.1486 C   0  0  0  0  0  0  0  0  0  0  0  0
   -5.1820    0.3931   -0.3462 C   0  0  0  0  0  0  0  0  0  0  0  0
   -5.7525   -0.3955    0.5724 N   0  0  0  0  0  0  0  0  0  0  0  0
   -7.0726   -0.5185    0.4606 C   0  0  0  0  0  0  0  0  0  0  0  0
   -7.8361    0.0481   -0.4689 N   0  0  0  0  0  0  0  0  0  0  0  0
   -7.1578    0.7924   -1.3365 C   0  0  0  0  0  0  0  0  0  0  0  0
   -5.8447    1.0079   -1.3301 N   0  0  0  0  0  0  0  0  0  0  0  0
    5.3288   -4.1571    0.6675 H   0  0  0  0  0  0  0  0  0  0  0  0
    5.5765   -3.7898   -1.0662 H   0  0  0  0  0  0  0  0  0  0  0  0
    7.2893   -2.3087    0.3330 H   0  0  0  0  0  0  0  0  0  0  0  0
    7.0208    0.4027    0.7558 H   0  0  0  0  0  0  0  0  0  0  0  0
    5.3861    2.2587    0.6493 H   0  0  0  0  0  0  0  0  0  0  0  0
    1.0747    2.9378    0.0809 H   0  0  0  0  0  0  0  0  0  0  0  0
   -0.2848    3.4823   -1.3417 H   0  0  0  0  0  0  0  0  0  0  0  0
   -2.4462    4.5727   -1.8005 H   0  0  0  0  0  0  0  0  0  0  0  0
   -4.4638    3.1941   -1.2997 H   0  0  0  0  0  0  0  0  0  0  0  0
   -3.3218   -1.4627    0.4014 H   0  0  0  0  0  0  0  0  0  0  0  0
    3.0793   -3.2266   -0.4650 H   0  0  0  0  0  0  0  0  0  0  0  0
   -7.5725   -1.1383    1.1969 H   0  0  0  0  0  0  0  0  0  0  0  0
   -7.7280    1.2697   -2.1254 H   0  0  0  0  0  0  0  0  0  0  0  0
  1  2  1  0
  2  3  2  0
  3  4  1  0
  4  5  2  0
  5  6  1  0
  6  7  2  0
  7  8  1  0
  8  9  2  0
  9 10  1  0
 10 11  1  0
 11 12  2  0
 12 13  1  0
 13 14  1  0
 14 15  2  0
 15 16  1  0
 16 17  2  0
 17 18  1  0
 18 19  1  0
 19 20  2  0
 20 21  1  0
 21 22  1  0
 22 23  2  0
 23 24  1  0
 24 25  2  0
 25 26  1  0
 26 27  2  0
 16 28  1  0
 28 29  2  0
 29 30  1  0
 30 31  2  0
 31 32  1  0
 32 33  2  0
 27  1  1  0
 33 28  1  0
 26  3  1  0
 25  6  1  0
 24  9  1  0
 18 10  2  0
 23 19  1  0
 15 11  1  0
  1 34  1  0
  1 35  1  0
  2 36  1  0
  4 37  1  0
  5 38  1  0
  8 39  1  0
 12 40  1  0
 13 41  1  0
 14 42  1  0
 17 43  1  0
 27 44  1  0
 30 45  1  0
 32 46  1  0
M  END
