
     RDKit          3D

 46 53  0  0  0  0  0  0  0  0999 V2000
   -6.1746   -0.0080    0.9451 C   0  0  0  0  0  0  0  0  0  0  0  0
   -6.4579   -0.3235   -0.4915 C   0  0  0  0  0  0  0  0  0  0  0  0
   -5.2999   -0.3986   -1.1605 C   0  0  0  0  0  0  0  0  0  0  0  0
   -5.0903   -0.8401   -2.5114 C   0  0  0  0  0  0  0  0  0  0  0  0
   -3.8285   -1.0539   -2.9211 C   0  0  0  0  0  0  0  0  0  0  0  0
   -2.6604   -0.7733   -2.0526 C   0  0  0  0  0  0  0  0  0  0  0  0
   -1.4798   -1.1429   -2.5948 N   0  0  0  0  0  0  0  0  0  0  0  0
   -0.3690   -0.8772   -1.8762 C   0  0  0  0  0  0  0  0  0  0  0  0
   -0.3277   -0.1610   -0.6803 C   0  0  0  0  0  0  0  0  0  0  0  0
    0.9239    0.0956   -0.0398 C   0  0  0  0  0  0  0  0  0  0  0  0
    2.3036   -0.3703   -0.4354 C   0  0  0  0  0  0  0  0  0  0  0  0
    3.2009    0.2566    0.6392 C   0  0  0  0  0  0  0  0  0  0  0  0
    2.4645    0.9774    1.5136 C   0  0  0  0  0  0  0  0  0  0  0  0
    1.0855    0.8804    1.1068 C   0  0  0  0  0  0  0  0  0  0  0  0
   -0.0779    1.4681    1.5630 C   0  0  0  0  0  0  0  0  0  0  0  0
   -0.1242    2.3678    2.5987 C   0  0  0  0  0  0  0  0  0  0  0  0
   -1.7015    3.0133    2.7802 S   0  0  0  0  0  0  0  0  0  0  0  0
   -2.3040    2.0923    1.4591 C   0  0  0  0  0  0  0  0  0  0  0  0
   -1.3722    1.2152    0.9520 C   0  0  0  0  0  0  0  0  0  0  0  0
   -1.5908    0.3101   -0.1598 C   0  0  0  0  0  0  0  0  0  0  0  0
   -2.7934   -0.1332   -0.7963 C   0  0  0  0  0  0  0  0  0  0  0  0
   -4.1800   -0.0743   -0.2760 C   0  0  0  0  0  0  0  0  0  0  0  0
   -4.6738    0.0713    0.9663 C   0  0  0  0  0  0  0  0  0  0  0  0
    4.6257    0.1315    0.7439 C   0  0  0  0  0  0  0  0  0  0  0  0
    5.5572    0.8834    2.0143 S   0  0  0  0  0  0  0  0  0  0  0  0
    7.0592    0.2813    1.4478 C   0  0  0  0  0  0  0  0  0  0  0  0
    6.8735   -0.4705    0.3278 C   0  0  0  0  0  0  0  0  0  0  0  0
    8.0654   -1.3487   -0.6981 S   0  0  0  0  0  0  0  0  0  0  0  0
    6.6681   -1.8159   -1.6506 C   0  0  0  0  0  0  0  0  0  0  0  0
    5.4289   -1.3369   -1.2092 C   0  0  0  0  0  0  0  0  0  0  0  0
    5.5268   -0.5349   -0.0348 C   0  0  0  0  0  0  0  0  0  0  0  0
   -6.5322   -0.8089    1.5990 H   0  0  0  0  0  0  0  0  0  0  0  0
   -6.6264    0.9424    1.2432 H   0  0  0  0  0  0  0  0  0  0  0  0
   -7.4384   -0.5423   -0.8859 H   0  0  0  0  0  0  0  0  0  0  0  0
   -5.9382   -1.0480   -3.1534 H   0  0  0  0  0  0  0  0  0  0  0  0
   -3.6132   -1.4259   -3.9165 H   0  0  0  0  0  0  0  0  0  0  0  0
    0.5388   -1.2532   -2.3421 H   0  0  0  0  0  0  0  0  0  0  0  0
    2.3634   -1.4628   -0.4017 H   0  0  0  0  0  0  0  0  0  0  0  0
    2.5686    0.0099   -1.4271 H   0  0  0  0  0  0  0  0  0  0  0  0
    2.7938    1.5402    2.3717 H   0  0  0  0  0  0  0  0  0  0  0  0
    0.6763    2.7179    3.2357 H   0  0  0  0  0  0  0  0  0  0  0  0
   -3.3168    2.2793    1.1369 H   0  0  0  0  0  0  0  0  0  0  0  0
   -4.1117    0.1913    1.8788 H   0  0  0  0  0  0  0  0  0  0  0  0
    7.9968    0.4943    1.9424 H   0  0  0  0  0  0  0  0  0  0  0  0
    6.8485   -2.4411   -2.5147 H   0  0  0  0  0  0  0  0  0  0  0  0
    4.5135   -1.5741   -1.7341 H   0  0  0  0  0  0  0  0  0  0  0  0
  1  2  1  0
  2  3  2  0
  3  4  1  0
  4  5  2  0
  5  6  1  0
  6  7  2  0
  7  8  1  0
  8  9  2  0
  9 10  1  0
 10 11  1  0
 11 12  1  0
 12 13  2  0
 13 14  1  0
 14 15  1  0
 15 16  2  0
 16 17  1  0
 17 18  1  0
 18 19  2  0
 19 20  1  0
 20 21  2  0
 21 22  1  0
 22 23  2  0
 12 24  1  0
 24 25  1  0
 25 26  1  0
 26 27  2  0
 27 28  1  0
 28 29  1  0
 29 30  2  0
 30 31  1  0
 23  1  1  0
 31 24  2  0
 22  3  1  0
 31 27  1  0
 21  6  1  0
 20  9  1  0
 14 10  2  0
 19 15  1  0
  1 32  1  0
  1 33  1  0
  2 34  1  0
  4 35  1  0
  5 36  1  0
  8 37  1  0
 11 38  1  0
 11 39  1  0
 13 40  1  0
 16 41  1  0
 18 42  1  0
 23 43  1  0
 26 44  1  0
 29 45  1  0
 30 46  1  0
M  END
