
     RDKit          3D

 38 43  0  0  0  0  0  0  0  0999 V2000
   -2.3365    2.9501   -1.7005 C   0  0  0  0  0  0  0  0  0  0  0  0
   -3.7420    2.4160   -1.7184 C   0  0  0  0  0  0  0  0  0  0  0  0
   -3.7480    1.1678   -1.2320 C   0  0  0  0  0  0  0  0  0  0  0  0
   -4.8582    0.2599   -1.0673 C   0  0  0  0  0  0  0  0  0  0  0  0
   -4.6335   -0.9696   -0.5618 C   0  0  0  0  0  0  0  0  0  0  0  0
   -3.2761   -1.4179   -0.1638 C   0  0  0  0  0  0  0  0  0  0  0  0
   -3.1960   -2.6787    0.3284 N   0  0  0  0  0  0  0  0  0  0  0  0
   -1.9877   -3.1598    0.7184 C   0  0  0  0  0  0  0  0  0  0  0  0
   -0.8421   -2.3650    0.6216 C   0  0  0  0  0  0  0  0  0  0  0  0
    0.5365   -2.5298    0.9236 C   0  0  0  0  0  0  0  0  0  0  0  0
    1.1626   -1.3402    0.6074 C   0  0  0  0  0  0  0  0  0  0  0  0
    0.2480   -0.4607    0.1067 O   0  0  0  0  0  0  0  0  0  0  0  0
   -0.9695   -1.0761    0.1135 C   0  0  0  0  0  0  0  0  0  0  0  0
   -2.1803   -0.5497   -0.3059 C   0  0  0  0  0  0  0  0  0  0  0  0
   -2.3897    0.7833   -0.8584 C   0  0  0  0  0  0  0  0  0  0  0  0
   -1.5563    1.8002   -1.1263 C   0  0  0  0  0  0  0  0  0  0  0  0
    2.5339   -0.8904    0.6669 C   0  0  0  0  0  0  0  0  0  0  0  0
    3.6606   -1.7490    0.5623 C   0  0  0  0  0  0  0  0  0  0  0  0
    5.0313   -1.3046    0.6227 C   0  0  0  0  0  0  0  0  0  0  0  0
    5.4251    0.0411    0.8013 C   0  0  0  0  0  0  0  0  0  0  0  0
    4.3086    0.8577    0.9126 C   0  0  0  0  0  0  0  0  0  0  0  0
    4.3018    2.2118    1.1114 C   0  0  0  0  0  0  0  0  0  0  0  0
    3.0095    2.6526    1.1906 O   0  0  0  0  0  0  0  0  0  0  0  0
    2.1920    1.5650    1.0388 C   0  0  0  0  0  0  0  0  0  0  0  0
    2.9454    0.4335    0.8507 C   0  0  0  0  0  0  0  0  0  0  0  0
   -2.2596    3.8354   -1.0627 H   0  0  0  0  0  0  0  0  0  0  0  0
   -1.9947    3.1913   -2.7113 H   0  0  0  0  0  0  0  0  0  0  0  0
   -4.5986    2.9659   -2.0762 H   0  0  0  0  0  0  0  0  0  0  0  0
   -5.8541    0.5775   -1.3547 H   0  0  0  0  0  0  0  0  0  0  0  0
   -5.4383   -1.6826   -0.4237 H   0  0  0  0  0  0  0  0  0  0  0  0
   -1.9757   -4.1739    1.1020 H   0  0  0  0  0  0  0  0  0  0  0  0
    1.0135   -3.4083    1.3344 H   0  0  0  0  0  0  0  0  0  0  0  0
   -0.4889    1.8130   -0.9703 H   0  0  0  0  0  0  0  0  0  0  0  0
    3.4941   -2.8167    0.4134 H   0  0  0  0  0  0  0  0  0  0  0  0
    5.8130   -2.0594    0.5224 H   0  0  0  0  0  0  0  0  0  0  0  0
    6.4556    0.3628    0.8481 H   0  0  0  0  0  0  0  0  0  0  0  0
    5.0610    2.9729    1.2219 H   0  0  0  0  0  0  0  0  0  0  0  0
    1.1333    1.7749    1.0947 H   0  0  0  0  0  0  0  0  0  0  0  0
  1  2  1  0
  2  3  2  0
  3  4  1  0
  4  5  2  0
  5  6  1  0
  6  7  2  0
  7  8  1  0
  8  9  2  0
  9 10  1  0
 10 11  2  0
 11 12  1  0
 12 13  1  0
 13 14  2  0
 14 15  1  0
 15 16  2  0
 11 17  1  0
 17 18  2  0
 18 19  1  0
 19 20  2  0
 20 21  1  0
 21 22  2  0
 22 23  1  0
 23 24  1  0
 24 25  2  0
 16  1  1  0
 25 17  1  0
 15  3  1  0
 25 21  1  0
 14  6  1  0
 13  9  1  0
  1 26  1  0
  1 27  1  0
  2 28  1  0
  4 29  1  0
  5 30  1  0
  8 31  1  0
 10 32  1  0
 16 33  1  0
 18 34  1  0
 19 35  1  0
 20 36  1  0
 22 37  1  0
 24 38  1  0
M  END
