
     RDKit          3D

 46 53  0  0  0  0  0  0  0  0999 V2000
   -6.2530   -1.2133    1.4068 C   0  0  0  0  0  0  0  0  0  0  0  0
   -6.5467    0.2040    1.0118 C   0  0  0  0  0  0  0  0  0  0  0  0
   -5.4096    0.7995    0.6269 C   0  0  0  0  0  0  0  0  0  0  0  0
   -5.2133    2.1817    0.2369 C   0  0  0  0  0  0  0  0  0  0  0  0
   -3.9672    2.6156   -0.0389 C   0  0  0  0  0  0  0  0  0  0  0  0
   -2.8906    1.6731    0.0309 C   0  0  0  0  0  0  0  0  0  0  0  0
   -1.5780    1.9762   -0.1966 O   0  0  0  0  0  0  0  0  0  0  0  0
   -0.8462    0.8294   -0.0775 C   0  0  0  0  0  0  0  0  0  0  0  0
    0.5724    0.7445   -0.2104 C   0  0  0  0  0  0  0  0  0  0  0  0
    1.6149    1.7921   -0.4507 C   0  0  0  0  0  0  0  0  0  0  0  0
    2.9068    0.9871   -0.4555 C   0  0  0  0  0  0  0  0  0  0  0  0
    2.5922   -0.3073   -0.2470 C   0  0  0  0  0  0  0  0  0  0  0  0
    1.1631   -0.4670   -0.0947 C   0  0  0  0  0  0  0  0  0  0  0  0
    0.3452   -1.6414    0.1265 C   0  0  0  0  0  0  0  0  0  0  0  0
    0.7156   -2.9288    0.1877 C   0  0  0  0  0  0  0  0  0  0  0  0
   -0.5026   -3.7900    0.3386 C   0  0  0  0  0  0  0  0  0  0  0  0
   -1.6207   -2.7848    0.3447 C   0  0  0  0  0  0  0  0  0  0  0  0
   -1.1216   -1.5452    0.2577 C   0  0  0  0  0  0  0  0  0  0  0  0
   -1.7106   -0.2441    0.1911 C   0  0  0  0  0  0  0  0  0  0  0  0
   -2.9989    0.3091    0.3447 C   0  0  0  0  0  0  0  0  0  0  0  0
   -4.2974   -0.1618    0.7026 C   0  0  0  0  0  0  0  0  0  0  0  0
   -4.7689   -1.3176    1.1872 C   0  0  0  0  0  0  0  0  0  0  0  0
    4.2328    1.4573   -0.6415 C   0  0  0  0  0  0  0  0  0  0  0  0
    4.6059    3.1434   -0.9022 S   0  0  0  0  0  0  0  0  0  0  0  0
    6.3168    2.8724   -1.0244 C   0  0  0  0  0  0  0  0  0  0  0  0
    6.5305    1.5507   -0.8673 C   0  0  0  0  0  0  0  0  0  0  0  0
    7.5914    0.6340   -0.8431 C   0  0  0  0  0  0  0  0  0  0  0  0
    6.9862   -0.6082   -0.6208 C   0  0  0  0  0  0  0  0  0  0  0  0
    5.6103   -0.5559   -0.5002 O   0  0  0  0  0  0  0  0  0  0  0  0
    5.4073    0.7841   -0.6604 C   0  0  0  0  0  0  0  0  0  0  0  0
   -6.7959   -1.9218    0.7743 H   0  0  0  0  0  0  0  0  0  0  0  0
   -6.5060   -1.3873    2.4569 H   0  0  0  0  0  0  0  0  0  0  0  0
   -7.5202    0.6654    1.0723 H   0  0  0  0  0  0  0  0  0  0  0  0
   -6.0649    2.8508    0.1971 H   0  0  0  0  0  0  0  0  0  0  0  0
   -3.7592    3.6410   -0.3184 H   0  0  0  0  0  0  0  0  0  0  0  0
    1.4561    2.2881   -1.4141 H   0  0  0  0  0  0  0  0  0  0  0  0
    1.6162    2.5346    0.3543 H   0  0  0  0  0  0  0  0  0  0  0  0
    3.2702   -1.1454   -0.1926 H   0  0  0  0  0  0  0  0  0  0  0  0
    1.7226   -3.3072    0.1030 H   0  0  0  0  0  0  0  0  0  0  0  0
   -0.4753   -4.3552    1.2747 H   0  0  0  0  0  0  0  0  0  0  0  0
   -0.6014   -4.4791   -0.5054 H   0  0  0  0  0  0  0  0  0  0  0  0
   -2.6560   -3.0685    0.3743 H   0  0  0  0  0  0  0  0  0  0  0  0
   -4.2054   -2.1976    1.4345 H   0  0  0  0  0  0  0  0  0  0  0  0
    7.0079    3.6849   -1.1974 H   0  0  0  0  0  0  0  0  0  0  0  0
    8.6496    0.8138   -0.9653 H   0  0  0  0  0  0  0  0  0  0  0  0
    7.3953   -1.6056   -0.5253 H   0  0  0  0  0  0  0  0  0  0  0  0
  1  2  1  0
  2  3  2  0
  3  4  1  0
  4  5  2  0
  5  6  1  0
  6  7  1  0
  7  8  1  0
  8  9  1  0
  9 10  1  0
 10 11  1  0
 11 12  2  0
 12 13  1  0
 13 14  1  0
 14 15  2  0
 15 16  1  0
 16 17  1  0
 17 18  2  0
 18 19  1  0
 19 20  1  0
 20 21  1  0
 21 22  2  0
 11 23  1  0
 23 24  1  0
 24 25  1  0
 25 26  2  0
 26 27  1  0
 27 28  2  0
 28 29  1  0
 29 30  1  0
 22  1  1  0
 30 23  2  0
 21  3  1  0
 30 26  1  0
 20  6  2  0
 19  8  2  0
 13  9  2  0
 18 14  1  0
  1 31  1  0
  1 32  1  0
  2 33  1  0
  4 34  1  0
  5 35  1  0
 10 36  1  0
 10 37  1  0
 12 38  1  0
 15 39  1  0
 16 40  1  0
 16 41  1  0
 17 42  1  0
 22 43  1  0
 25 44  1  0
 27 45  1  0
 28 46  1  0
M  END
