
     RDKit          3D

 47 54  0  0  0  0  0  0  0  0999 V2000
   -6.2970   -0.9969    1.4024 C   0  0  0  0  0  0  0  0  0  0  0  0
   -6.7876   -0.2372    0.2026 C   0  0  0  0  0  0  0  0  0  0  0  0
   -5.7375    0.2554   -0.4638 C   0  0  0  0  0  0  0  0  0  0  0  0
   -5.7368    0.9724   -1.7221 C   0  0  0  0  0  0  0  0  0  0  0  0
   -4.5594    1.2432   -2.3188 C   0  0  0  0  0  0  0  0  0  0  0  0
   -3.3501    0.8473   -1.6518 C   0  0  0  0  0  0  0  0  0  0  0  0
   -1.8231    1.0194   -2.3928 S   0  0  0  0  0  0  0  0  0  0  0  0
   -1.0081    0.4210   -1.0126 C   0  0  0  0  0  0  0  0  0  0  0  0
   -1.8894    0.1574    0.0397 C   0  0  0  0  0  0  0  0  0  0  0  0
   -3.2495    0.2579   -0.3853 C   0  0  0  0  0  0  0  0  0  0  0  0
   -4.4921   -0.1196    0.2250 C   0  0  0  0  0  0  0  0  0  0  0  0
   -4.8043   -0.9082    1.2593 C   0  0  0  0  0  0  0  0  0  0  0  0
   -1.3079   -0.2026    1.2996 C   0  0  0  0  0  0  0  0  0  0  0  0
   -1.8069   -0.1840    2.5475 C   0  0  0  0  0  0  0  0  0  0  0  0
   -0.7473   -0.5758    3.5354 C   0  0  0  0  0  0  0  0  0  0  0  0
    0.4618   -0.7351    2.6613 C   0  0  0  0  0  0  0  0  0  0  0  0
    0.1290   -0.4959    1.3772 C   0  0  0  0  0  0  0  0  0  0  0  0
    1.0185   -0.3448    0.2084 C   0  0  0  0  0  0  0  0  0  0  0  0
    2.3762   -0.6638    0.2391 C   0  0  0  0  0  0  0  0  0  0  0  0
    3.1543   -0.3796   -0.8775 C   0  0  0  0  0  0  0  0  0  0  0  0
    2.6633    0.2061   -1.9950 N   0  0  0  0  0  0  0  0  0  0  0  0
    1.3277    0.4505   -2.0265 C   0  0  0  0  0  0  0  0  0  0  0  0
    0.4562    0.1978   -0.9704 C   0  0  0  0  0  0  0  0  0  0  0  0
    4.5790   -0.6515   -0.8948 C   0  0  0  0  0  0  0  0  0  0  0  0
    5.2556   -2.2119   -0.5542 S   0  0  0  0  0  0  0  0  0  0  0  0
    6.8994   -1.6316   -0.6433 C   0  0  0  0  0  0  0  0  0  0  0  0
    6.8551   -0.3171   -0.9493 C   0  0  0  0  0  0  0  0  0  0  0  0
    7.6982    0.8028   -1.1690 C   0  0  0  0  0  0  0  0  0  0  0  0
    6.8584    1.9191   -1.3944 C   0  0  0  0  0  0  0  0  0  0  0  0
    5.5118    1.5614   -1.3598 N   0  0  0  0  0  0  0  0  0  0  0  0
    5.5963    0.2204   -1.0934 C   0  0  0  0  0  0  0  0  0  0  0  0
   -6.6377   -2.0393    1.3926 H   0  0  0  0  0  0  0  0  0  0  0  0
   -6.6283   -0.5125    2.3288 H   0  0  0  0  0  0  0  0  0  0  0  0
   -7.8269   -0.1471   -0.0797 H   0  0  0  0  0  0  0  0  0  0  0  0
   -6.6799    1.2498   -2.1817 H   0  0  0  0  0  0  0  0  0  0  0  0
   -4.5202    1.7606   -3.2709 H   0  0  0  0  0  0  0  0  0  0  0  0
   -4.1220   -1.4460    1.8959 H   0  0  0  0  0  0  0  0  0  0  0  0
   -2.8017    0.1141    2.8366 H   0  0  0  0  0  0  0  0  0  0  0  0
   -1.0010   -1.5112    4.0467 H   0  0  0  0  0  0  0  0  0  0  0  0
   -0.5909    0.2172    4.2759 H   0  0  0  0  0  0  0  0  0  0  0  0
    1.4503   -0.9262    3.0530 H   0  0  0  0  0  0  0  0  0  0  0  0
    2.8290   -1.1013    1.1212 H   0  0  0  0  0  0  0  0  0  0  0  0
    0.9830    0.8634   -2.9726 H   0  0  0  0  0  0  0  0  0  0  0  0
    7.7352   -2.2875   -0.4548 H   0  0  0  0  0  0  0  0  0  0  0  0
    8.7793    0.8309   -1.1462 H   0  0  0  0  0  0  0  0  0  0  0  0
    7.1200    2.9539   -1.5797 H   0  0  0  0  0  0  0  0  0  0  0  0
    4.6679    2.1048   -1.5078 H   0  0  0  0  0  0  0  0  0  0  0  0
  1  2  1  0
  2  3  2  0
  3  4  1  0
  4  5  2  0
  5  6  1  0
  6  7  1  0
  7  8  1  0
  8  9  2  0
  9 10  1  0
 10 11  1  0
 11 12  2  0
  9 13  1  0
 13 14  2  0
 14 15  1  0
 15 16  1  0
 16 17  2  0
 17 18  1  0
 18 19  2  0
 19 20  1  0
 20 21  2  0
 21 22  1  0
 22 23  2  0
 20 24  1  0
 24 25  1  0
 25 26  1  0
 26 27  2  0
 27 28  1  0
 28 29  2  0
 29 30  1  0
 30 31  1  0
 12  1  1  0
 17 13  1  0
 23 18  1  0
 31 24  2  0
 11  3  1  0
 31 27  1  0
 10  6  2  0
 23  8  1  0
  1 32  1  0
  1 33  1  0
  2 34  1  0
  4 35  1  0
  5 36  1  0
 12 37  1  0
 14 38  1  0
 15 39  1  0
 15 40  1  0
 16 41  1  0
 19 42  1  0
 22 43  1  0
 26 44  1  0
 28 45  1  0
 29 46  1  0
 30 47  1  0
M  END
