
     RDKit          3D

 42 48  0  0  0  0  0  0  0  0999 V2000
   -5.8942    1.5964   -1.5124 C   0  0  0  0  0  0  0  0  0  0  0  0
   -6.4545    0.8958   -0.3099 C   0  0  0  0  0  0  0  0  0  0  0  0
   -5.4504    0.3564    0.3945 C   0  0  0  0  0  0  0  0  0  0  0  0
   -5.5271   -0.4067    1.6210 C   0  0  0  0  0  0  0  0  0  0  0  0
   -4.3894   -0.8670    2.1780 C   0  0  0  0  0  0  0  0  0  0  0  0
   -3.1450   -0.5761    1.5234 C   0  0  0  0  0  0  0  0  0  0  0  0
   -1.6658   -1.1073    2.1420 S   0  0  0  0  0  0  0  0  0  0  0  0
   -0.7273   -0.4002    0.8682 C   0  0  0  0  0  0  0  0  0  0  0  0
   -1.5863    0.2574   -0.0413 C   0  0  0  0  0  0  0  0  0  0  0  0
   -0.9924    0.9013   -1.1537 C   0  0  0  0  0  0  0  0  0  0  0  0
    0.3870    0.8992   -1.3582 C   0  0  0  0  0  0  0  0  0  0  0  0
    1.2439    0.2607   -0.4764 C   0  0  0  0  0  0  0  0  0  0  0  0
    2.6454    0.3119   -0.7571 C   0  0  0  0  0  0  0  0  0  0  0  0
    3.6553   -0.2740    0.0364 C   0  0  0  0  0  0  0  0  0  0  0  0
    5.0627   -0.1519   -0.2797 C   0  0  0  0  0  0  0  0  0  0  0  0
    6.2168    0.0675    0.4470 C   0  0  0  0  0  0  0  0  0  0  0  0
    7.2857    0.0959   -0.4822 C   0  0  0  0  0  0  0  0  0  0  0  0
    6.7196   -0.0952   -1.7193 C   0  0  0  0  0  0  0  0  0  0  0  0
    5.3742   -0.2362   -1.6088 O   0  0  0  0  0  0  0  0  0  0  0  0
    3.1281   -0.9518    1.1461 C   0  0  0  0  0  0  0  0  0  0  0  0
    3.8972   -1.6685    2.0358 C   0  0  0  0  0  0  0  0  0  0  0  0
    2.9585   -2.3742    3.2763 S   0  0  0  0  0  0  0  0  0  0  0  0
    1.5031   -1.7599    2.6071 C   0  0  0  0  0  0  0  0  0  0  0  0
    1.6986   -1.0227    1.4600 C   0  0  0  0  0  0  0  0  0  0  0  0
    0.6875   -0.4115    0.6666 C   0  0  0  0  0  0  0  0  0  0  0  0
   -2.9717    0.1448    0.3495 C   0  0  0  0  0  0  0  0  0  0  0  0
   -4.1701    0.6470   -0.2653 C   0  0  0  0  0  0  0  0  0  0  0  0
   -4.4146    1.3645   -1.3709 C   0  0  0  0  0  0  0  0  0  0  0  0
   -6.2741    1.1546   -2.4383 H   0  0  0  0  0  0  0  0  0  0  0  0
   -6.1280    2.6649   -1.4903 H   0  0  0  0  0  0  0  0  0  0  0  0
   -7.5046    0.8446   -0.0669 H   0  0  0  0  0  0  0  0  0  0  0  0
   -6.4940   -0.5968    2.0722 H   0  0  0  0  0  0  0  0  0  0  0  0
   -4.4083   -1.4430    3.0973 H   0  0  0  0  0  0  0  0  0  0  0  0
   -1.6073    1.4193   -1.8814 H   0  0  0  0  0  0  0  0  0  0  0  0
    0.7738    1.4162   -2.2352 H   0  0  0  0  0  0  0  0  0  0  0  0
    2.9739    0.8540   -1.6477 H   0  0  0  0  0  0  0  0  0  0  0  0
    6.2804    0.2053    1.5172 H   0  0  0  0  0  0  0  0  0  0  0  0
    8.3362    0.2455   -0.2767 H   0  0  0  0  0  0  0  0  0  0  0  0
    7.1135   -0.1491   -2.7246 H   0  0  0  0  0  0  0  0  0  0  0  0
    4.9639   -1.8371    2.0399 H   0  0  0  0  0  0  0  0  0  0  0  0
    0.5994   -2.0145    3.1326 H   0  0  0  0  0  0  0  0  0  0  0  0
   -3.6993    1.7403   -2.0807 H   0  0  0  0  0  0  0  0  0  0  0  0
  1  2  1  0
  2  3  2  0
  3  4  1  0
  4  5  2  0
  5  6  1  0
  6  7  1  0
  7  8  1  0
  8  9  2  0
  9 10  1  0
 10 11  2  0
 11 12  1  0
 12 13  1  0
 13 14  2  0
 14 15  1  0
 15 16  2  0
 16 17  1  0
 17 18  2  0
 18 19  1  0
 14 20  1  0
 20 21  2  0
 21 22  1  0
 22 23  1  0
 23 24  2  0
 24 25  1  0
  9 26  1  0
 26 27  1  0
 27 28  2  0
 28  1  1  0
 27  3  1  0
 26  6  2  0
 25  8  1  0
 25 12  2  0
 19 15  1  0
 24 20  1  0
  1 29  1  0
  1 30  1  0
  2 31  1  0
  4 32  1  0
  5 33  1  0
 10 34  1  0
 11 35  1  0
 13 36  1  0
 16 37  1  0
 17 38  1  0
 18 39  1  0
 21 40  1  0
 23 41  1  0
 28 42  1  0
M  END
