
     RDKit          3D

 40 46  0  0  0  0  0  0  0  0999 V2000
   -6.5193    1.3820   -0.6043 C   0  0  0  0  0  0  0  0  0  0  0  0
   -6.8806    0.0352   -0.0362 C   0  0  0  0  0  0  0  0  0  0  0  0
   -5.7595   -0.6522    0.2232 C   0  0  0  0  0  0  0  0  0  0  0  0
   -5.6126   -1.9855    0.7737 C   0  0  0  0  0  0  0  0  0  0  0  0
   -4.3754   -2.4952    0.9566 C   0  0  0  0  0  0  0  0  0  0  0  0
   -3.2475   -1.6837    0.5930 C   0  0  0  0  0  0  0  0  0  0  0  0
   -1.6261   -2.2102    0.7741 S   0  0  0  0  0  0  0  0  0  0  0  0
   -1.0497   -0.7545    0.1558 C   0  0  0  0  0  0  0  0  0  0  0  0
   -2.0166    0.1583   -0.2010 C   0  0  0  0  0  0  0  0  0  0  0  0
   -1.6966    1.3795   -0.7158 N   0  0  0  0  0  0  0  0  0  0  0  0
   -0.3974    1.7333   -0.8929 C   0  0  0  0  0  0  0  0  0  0  0  0
    0.6837    0.9084   -0.5751 C   0  0  0  0  0  0  0  0  0  0  0  0
    2.0996    0.9747   -0.6353 C   0  0  0  0  0  0  0  0  0  0  0  0
    2.6018   -0.2274   -0.1474 C   0  0  0  0  0  0  0  0  0  0  0  0
    1.5370   -1.0253    0.2085 O   0  0  0  0  0  0  0  0  0  0  0  0
    0.4082   -0.3325   -0.0532 C   0  0  0  0  0  0  0  0  0  0  0  0
    3.9697   -0.6485   -0.0037 C   0  0  0  0  0  0  0  0  0  0  0  0
    4.3575   -2.2165    0.6355 S   0  0  0  0  0  0  0  0  0  0  0  0
    6.0594   -1.9699    0.4960 C   0  0  0  0  0  0  0  0  0  0  0  0
    6.2914   -0.7334   -0.0199 C   0  0  0  0  0  0  0  0  0  0  0  0
    7.4408    0.0220   -0.3572 C   0  0  0  0  0  0  0  0  0  0  0  0
    7.0545    1.2225   -0.8445 C   0  0  0  0  0  0  0  0  0  0  0  0
    5.5285    1.3496   -0.8635 C   0  0  0  0  0  0  0  0  0  0  0  0
    5.1290    0.0232   -0.3069 C   0  0  0  0  0  0  0  0  0  0  0  0
   -3.3021   -0.3928    0.0579 C   0  0  0  0  0  0  0  0  0  0  0  0
   -4.6002    0.1642   -0.1432 C   0  0  0  0  0  0  0  0  0  0  0  0
   -5.0172    1.3423   -0.6229 C   0  0  0  0  0  0  0  0  0  0  0  0
   -6.8836    2.1893    0.0379 H   0  0  0  0  0  0  0  0  0  0  0  0
   -6.9222    1.5029   -1.6141 H   0  0  0  0  0  0  0  0  0  0  0  0
   -7.8910   -0.3052    0.1288 H   0  0  0  0  0  0  0  0  0  0  0  0
   -6.4996   -2.5533    1.0304 H   0  0  0  0  0  0  0  0  0  0  0  0
   -4.2302   -3.4893    1.3662 H   0  0  0  0  0  0  0  0  0  0  0  0
   -0.2482    2.7258   -1.3087 H   0  0  0  0  0  0  0  0  0  0  0  0
    2.6862    1.8070   -0.9947 H   0  0  0  0  0  0  0  0  0  0  0  0
    6.7596   -2.7360    0.7971 H   0  0  0  0  0  0  0  0  0  0  0  0
    8.4605   -0.3170   -0.2396 H   0  0  0  0  0  0  0  0  0  0  0  0
    7.7223    2.0016   -1.1810 H   0  0  0  0  0  0  0  0  0  0  0  0
    5.2026    2.1747   -0.2241 H   0  0  0  0  0  0  0  0  0  0  0  0
    5.1662    1.4883   -1.8860 H   0  0  0  0  0  0  0  0  0  0  0  0
   -4.3830    2.1436   -0.9707 H   0  0  0  0  0  0  0  0  0  0  0  0
  1  2  1  0
  2  3  2  0
  3  4  1  0
  4  5  2  0
  5  6  1  0
  6  7  1  0
  7  8  1  0
  8  9  2  0
  9 10  1  0
 10 11  2  0
 11 12  1  0
 12 13  1  0
 13 14  2  0
 14 15  1  0
 15 16  1  0
 14 17  1  0
 17 18  1  0
 18 19  1  0
 19 20  2  0
 20 21  1  0
 21 22  2  0
 22 23  1  0
 23 24  1  0
  9 25  1  0
 25 26  1  0
 26 27  2  0
 27  1  1  0
 26  3  1  0
 25  6  2  0
 16  8  1  0
 24 17  2  0
 16 12  2  0
 24 20  1  0
  1 28  1  0
  1 29  1  0
  2 30  1  0
  4 31  1  0
  5 32  1  0
 11 33  1  0
 13 34  1  0
 19 35  1  0
 21 36  1  0
 22 37  1  0
 23 38  1  0
 23 39  1  0
 27 40  1  0
M  END
